version 2
run Wireless06-0-20200528-14:42:13-154180
attr configname Wireless06
attr datetime 20200528-14:42:13
attr experiment Wireless06
attr inifile omnetpp.ini
attr iterationvars ""
attr iterationvarsf ""
attr measurement ""
attr network WirelessB
attr processid 154180
attr repetition 0
attr replication #0
attr resultdir results
attr runnumber 0
attr seedset 0
param *.host*.wlan[0].typename "\"WirelessInterface\""
param *.host*.wlan[0].radio.typename "\"UnitDiskRadio\""
param *.host*.wlan[0].mac.typename "\"CsmaCaMac\""
param *.host*.wlan[0].mac.ackTimeout 300us
param *.host*.wlan[0].radio.receiver.ignoreInterference false
param *.host*.wlan[0].radio.transmitter.interferenceRange 500m
param *.hostA.wlan[0].radio.displayInterferenceRange true
param *.visualizer.dataLinkVisualizer.packetFilter "\"\""
param *.host*.forwarding true
param *.configurator.config "xml(\"<config><interface hosts='**' address='10.0.0.x' netmask='255.255.255.0'/><autoroute metric='errorRate'/></config>\")"
param *.configurator.optimizeRoutes false
param *.host*.ipv4.routingTable.netmaskRoutes "\"\""
param *.visualizer.physicalLinkVisualizer.displayLinks true
param *.visualizer.dataLinkVisualizer.displayLinks true
param *.visualizer.networkRouteVisualizer.displayRoutes true
param *.visualizer.*LinkVisualizer.lineShift 0
param *.visualizer.networkRouteVisualizer.lineShift 0
param *.visualizer.networkRouteVisualizer.packetFilter "\"UDPData*\""
param *.host*.wlan[0].radio.transmitter.communicationRange 250m
param *.hostR1.wlan[0].radio.displayCommunicationRange true
param *.hostA.wlan[0].radio.displayCommunicationRange true
param *.visualizer.sceneVisualizer.descriptionFigure "\"title\""
param *.visualizer.mediumVisualizer.displaySignals true
param *.visualizer.physicalLinkVisualizer.displayLinks true
param *.visualizer.physicalLinkVisualizer.packetFilter "\"UDPData*\""
param *.host*.ipv4.arp.typename "\"GlobalArp\""
param *.hostA.numApps 1
param *.hostA.app[0].typename "\"UdpBasicApp\""
param *.hostA.app[0].destAddresses "\"hostB\""
param *.hostA.app[0].destPort 5000
param *.hostA.app[0].messageLength 1000B
param *.hostA.app[0].sendInterval exponential(12ms)
param *.hostA.app[0].packetName "\"UDPData\""
param *.hostB.numApps 1
param *.hostB.app[0].typename "\"UdpSink\""
param *.hostB.app[0].localPort 5000
param *.host*.wlan[0].typename "\"AckingWirelessInterface\""
param *.host*.wlan[0].mac.useAck false
param *.host*.wlan[0].mac.fullDuplex false
param *.host*.wlan[0].radio.transmitter.communicationRange 500m
param *.host*.wlan[0].radio.receiver.ignoreInterference true
param *.host*.wlan[0].mac.headerLength 23B
param *.host*.**.bitrate 1Mbps

vector 0 WirelessB.hostA.wlan[0].radio radioMode:vector ETV
attr interpolationmode sample-hold
attr source radioModeChanged
attr title "Radio mode, vector"
vector 1 WirelessB.hostB.wlan[0].radio radioMode:vector ETV
attr interpolationmode sample-hold
attr source radioModeChanged
attr title "Radio mode, vector"
vector 2 WirelessB.hostR1.wlan[0].radio radioMode:vector ETV
attr interpolationmode sample-hold
attr source radioModeChanged
attr title "Radio mode, vector"
vector 3 WirelessB.hostR2.wlan[0].radio radioMode:vector ETV
attr interpolationmode sample-hold
attr source radioModeChanged
attr title "Radio mode, vector"
vector 4 WirelessB.hostR3.wlan[0].radio radioMode:vector ETV
attr interpolationmode sample-hold
attr source radioModeChanged
attr title "Radio mode, vector"
vector 5 WirelessB.hostA.wlan[0].radio receptionState:vector ETV
attr interpolationmode sample-hold
attr source receptionStateChanged
attr title "Radio reception state, vector"
vector 6 WirelessB.hostB.wlan[0].radio receptionState:vector ETV
attr interpolationmode sample-hold
attr source receptionStateChanged
attr title "Radio reception state, vector"
vector 7 WirelessB.hostR1.wlan[0].radio receptionState:vector ETV
attr interpolationmode sample-hold
attr source receptionStateChanged
attr title "Radio reception state, vector"
vector 8 WirelessB.hostR2.wlan[0].radio receptionState:vector ETV
attr interpolationmode sample-hold
attr source receptionStateChanged
attr title "Radio reception state, vector"
vector 9 WirelessB.hostR3.wlan[0].radio receptionState:vector ETV
attr interpolationmode sample-hold
attr source receptionStateChanged
attr title "Radio reception state, vector"
vector 10 WirelessB.hostA.app[0] packetSent:vector(packetBytes) ETV
attr interpolationmode none
attr source packetSent
attr title "packets sent, vector(packetBytes)"
vector 11 WirelessB.hostA.udp packetSent:vector(packetBytes) ETV
attr interpolationmode none
attr source packetSent
attr title "packets sent, vector(packetBytes)"
vector 12 WirelessB.hostA.wlan[0].mac.queue packetPushed:vector(packetBytes) ETV
attr interpolationmode none
attr title "packet pushed, vector(packetBytes)"
vector 13 WirelessB.hostA.wlan[0].mac.queue queueLength:vector ETV
attr interpolationmode sample-hold
attr source "count(packetPushed) - count(packetPopped) - count(packetRemoved) - count(packetDropped)"
attr title "queue length, vector"
vector 14 WirelessB.hostA.wlan[0].mac.queue packetPopped:vector(packetBytes) ETV
attr interpolationmode none
attr title "packet popped, vector(packetBytes)"
vector 15 WirelessB.hostA.wlan[0].mac.queue queueingTime:vector ETV
attr interpolationmode none
attr source queueingTime(packetPopped)
attr title "queueing times, vector"
attr unit s
vector 16 WirelessB.hostA.wlan[0].radio transmissionState:vector ETV
attr interpolationmode sample-hold
attr source transmissionStateChanged
attr title "Radio transmission state, vector"
vector 17 WirelessB.hostR2.wlan[0].mac packetDropNotAddressedToUs:vector(packetBytes) ETV
attr interpolationmode none
attr source packetDropReasonIsNotAddressedToUs(packetDropped)
attr title "packet drop: not addressed to us, vector(packetBytes)"
vector 18 WirelessB.hostR1.wlan[0].mac.queue packetPushed:vector(packetBytes) ETV
attr interpolationmode none
attr title "packet pushed, vector(packetBytes)"
vector 19 WirelessB.hostR1.wlan[0].mac.queue queueLength:vector ETV
attr interpolationmode sample-hold
attr source "count(packetPushed) - count(packetPopped) - count(packetRemoved) - count(packetDropped)"
attr title "queue length, vector"
vector 20 WirelessB.hostR1.wlan[0].mac.queue packetPopped:vector(packetBytes) ETV
attr interpolationmode none
attr title "packet popped, vector(packetBytes)"
vector 21 WirelessB.hostR1.wlan[0].mac.queue queueingTime:vector ETV
attr interpolationmode none
attr source queueingTime(packetPopped)
attr title "queueing times, vector"
attr unit s
vector 22 WirelessB.hostR1.wlan[0].radio transmissionState:vector ETV
attr interpolationmode sample-hold
attr source transmissionStateChanged
attr title "Radio transmission state, vector"
vector 23 WirelessB.hostR3.wlan[0].mac packetDropNotAddressedToUs:vector(packetBytes) ETV
attr interpolationmode none
attr source packetDropReasonIsNotAddressedToUs(packetDropped)
attr title "packet drop: not addressed to us, vector(packetBytes)"
vector 24 WirelessB.hostA.wlan[0].mac packetDropNotAddressedToUs:vector(packetBytes) ETV
attr interpolationmode none
attr source packetDropReasonIsNotAddressedToUs(packetDropped)
attr title "packet drop: not addressed to us, vector(packetBytes)"
vector 25 WirelessB.hostB.udp packetReceived:vector(packetBytes) ETV
attr interpolationmode none
attr source packetReceived
attr title "packets received, vector(packetBytes)"
vector 26 WirelessB.hostB.udp passedUpPk:vector(count) ETV
attr interpolationmode none
attr source packetSentToUpper
attr title "packets passed up, vector(count)"
vector 27 WirelessB.hostB.app[0] packetReceived:vector(packetBytes) ETV
attr interpolationmode none
attr source packetReceived
attr title "packets received, vector(packetBytes)"
vector 28 WirelessB.hostB.app[0] endToEndDelay:vector ETV
attr interpolationmode none
attr source dataAge(packetReceived)
attr title "end-to-end delay, vector"
attr unit s
vector 29 WirelessB.hostB.app[0] rcvdPkSeqNo:vector ETV
attr interpolationmode none
attr source appPkSeqNo(packetReceived)
attr title "received packet sequence number, vector"
vector 30 WirelessB.hostB.app[0] throughput:vector ETV
attr source throughput(packetReceived)
attr title "throughput, vector"
attr unit bps
vector 31 WirelessB.hostR2.wlan[0].mac packetDropIncorrectlyReceived:vector(packetBytes) ETV
attr interpolationmode none
attr source packetDropReasonIsIncorrectlyReceived(packetDropped)
attr title "packet drop: incorrectly received, vector(packetBytes)"
vector 32 WirelessB.hostR3.wlan[0].mac packetDropIncorrectlyReceived:vector(packetBytes) ETV
attr interpolationmode none
attr source packetDropReasonIsIncorrectlyReceived(packetDropped)
attr title "packet drop: incorrectly received, vector(packetBytes)"
vector 33 WirelessB.hostB.wlan[0].mac packetDropIncorrectlyReceived:vector(packetBytes) ETV
attr interpolationmode none
attr source packetDropReasonIsIncorrectlyReceived(packetDropped)
attr title "packet drop: incorrectly received, vector(packetBytes)"
vector 34 WirelessB.hostA.app[0] throughput:vector ETV
attr source throughput(packetReceived)
attr title "throughput, vector"
attr unit bps
0	0	0	0
0	0	0	0
0	0	0	2
0	9	0.022835250545	3
0	19	0.031371250545	2
0	28	0.031511250545	3
0	34	0.040047250545	2
0	66	0.049004595185	3
0	89	0.057540595185	2
0	98	0.057640595185	3
0	105	0.066176595185	2
0	156	0.083849939825	3
0	163	0.092385939825	2
0	172	0.092445939825	3
0	179	0.100981939825	2
0	211	0.109999284465	3
0	222	0.118535284465	2
0	273	0.135888629105	3
0	284	0.144424629105	2
0	285	0.144424629105	3
0	300	0.152960629105	2
0	347	0.170653973745	3
0	362	0.179189973745	2
0	390	0.188087318385	3
0	401	0.196623318385	2
0	402	0.196623318385	3
0	421	0.205159318385	2
0	476	0.222652663025	3
0	487	0.231188663025	2
0	496	0.231388663025	3
0	507	0.239924663025	2
0	581	0.266014007665	3
0	588	0.274550007665	2
0	597	0.274670007665	3
0	604	0.283206007665	2
0	613	0.283426007665	3
0	620	0.291962007665	2
0	660	0.300779352305	3
0	675	0.309315352305	2
0	684	0.309395352305	3
0	701	0.317931352305	2
0	741	0.327088696945	3
0	753	0.335624696945	2
0	789	0.344462041585	3
0	800	0.352998041585	2
0	859	0.370491386225	3
0	874	0.379027386225	2
0	902	0.387924730865	3
0	913	0.396460730865	2
0	941	0.405578075505	3
0	948	0.414114075505	2
0	957	0.414154075505	3
0	964	0.422690075505	2
0	996	0.431487420145	3
0	1003	0.440023420145	2
0	1012	0.440203420145	3
0	1035	0.448739420145	2
0	1086	0.466352764785	3
0	1097	0.474888764785	2
0	1144	0.492502109425	3
0	1155	0.501038109425	2
0	1164	0.501098109425	3
0	1175	0.509634109425	2
0	1234	0.527247454065	3
0	1249	0.535783454065	2
0	1277	0.544700798705	3
0	1288	0.553236798705	2
0	1289	0.553236798705	3
0	1304	0.561772798705	2
0	1313	0.561892798705	3
0	1320	0.570428798705	2
0	1352	0.579246143345	3
0	1363	0.587782143345	2
0	1372	0.588042143345	3
0	1379	0.596578143345	2
0	1411	0.605715487985	3
0	1418	0.614251487985	2
0	1427	0.614311487985	3
0	1438	0.622847487985	2
0	1466	0.631604832625	3
0	1481	0.640140832625	2
0	1551	0.666370177265	3
0	1562	0.674906177265	2
0	1590	0.684023521905	3
0	1597	0.692559521905	2
0	1598	0.692559521905	3
0	1613	0.701095521905	2
0	1645	0.709712866545	3
0	1652	0.718248866545	2
0	1684	0.727346211185	3
0	1691	0.735882211185	2
0	1723	0.744679555825	3
0	1730	0.753215555825	2
0	1758	0.762232900465	3
0	1769	0.770768900465	2
0	1797	0.779806245105	3
0	1804	0.788342245105	2
0	1832	0.797439589745	3
0	1839	0.805975589745	2
0	1875	0.814952934385	3
0	1891	0.823488934385	2
0	1897	0.823508934385	3
0	1904	0.832044934385	2
0	1905	0.832044934385	3
0	1921	0.840580934385	2
0	1930	0.840660934385	3
0	1941	0.849196934385	2
0	1973	0.858234279025	3
0	1988	0.866770279025	2
0	2020	0.875607623665	3
0	2043	0.884143623665	2
0	2094	0.901836968305	3
0	2101	0.910372968305	2
0	2129	0.919390312945	3
0	2136	0.927926312945	2
0	2195	0.945359657585	3
0	2202	0.953895657585	2
0	2276	0.980085002225	3
0	2283	0.988621002225	2
0	2311	0.997558346865	3
0	2318	1.006094346865	2
0	2354	1.015071691505	3
0	2361	1.023607691505	2
0	2389	1.032305036145	3
0	2400	1.040841036145	2
0	2432	1.049878380785	3
0	2439	1.058414380785	2
0	2448	1.058694380785	3
0	2455	1.067230380785	2
0	2514	1.084723725425	3
0	2521	1.093259725425	2
0	2549	1.102257070065	3
0	2556	1.110793070065	2
0	2565	1.111073070065	3
0	2576	1.119609070065	2
0	2585	1.119669070065	3
0	2592	1.128205070065	2
0	2647	1.145898414705	3
0	2671	1.154434414705	2
0	2677	1.154454414705	3
0	2684	1.162990414705	2
0	2717	1.171767759345	3
0	2732	1.180303759345	2
0	2764	1.188921103985	3
0	2775	1.197457103985	2
0	2784	1.197877103985	3
0	2791	1.206413103985	2
0	2823	1.215270448625	3
0	2830	1.223806448625	2
0	2839	1.223826448625	3
0	2854	1.232362448625	2
0	2882	1.241439793265	3
0	2897	1.249975793265	2
0	2925	1.258573137905	3
0	2932	1.267109137905	2
0	2983	1.284742482545	3
0	2994	1.293278482545	2
0	3022	1.302175827185	3
0	3029	1.310711827185	2
0	3061	1.319829171825	3
0	3077	1.328365171825	2
0	3083	1.328945171825	3
0	3098	1.337481171825	2
0	3107	1.337721171825	3
0	3115	1.346257171825	2
0	3162	1.363910516465	3
0	3177	1.372446516465	2
0	3186	1.372586516465	3
0	3201	1.381122516465	2
0	3233	1.389799861105	3
0	3240	1.398335861105	2
0	3268	1.407253205745	3
0	3275	1.415789205745	2
0	3303	1.424506550385	3
0	3318	1.433042550385	2
0	3327	1.433402550385	3
0	3334	1.441938550385	2
0	3335	1.441938550385	3
0	3354	1.450474550385	2
0	3405	1.468107895025	3
0	3420	1.476643895025	2
0	3429	1.476843895025	3
0	3436	1.485379895025	2
0	3445	1.485459895025	3
0	3452	1.493995895025	2
0	3522	1.520205239665	3
0	3529	1.528741239665	2
0	3538	1.528901239665	3
0	3549	1.537437239665	2
0	3581	1.546554584305	3
0	3592	1.555090584305	2
0	3620	1.563787928945	3
0	3627	1.572323928945	2
0	3678	1.589857273585	3
0	3685	1.598393273585	2
0	3694	1.598793273585	3
0	3711	1.607329273585	2
0	3767	1.624962618225	3
0	3774	1.633498618225	2
0	3783	1.633698618225	3
0	3790	1.642234618225	2
0	3826	1.651211962865	3
0	3846	1.659747962865	2
0	3852	1.659807962865	3
0	3867	1.668343962865	2
0	3904	1.677461307505	3
0	3915	1.685997307505	2
0	3951	1.694754652145	3
0	3962	1.703290652145	2
0	3975	1.703570652145	3
0	3986	1.712106652145	2
0	4018	1.721003996785	3
0	4029	1.729539996785	2
0	4061	1.738597341425	3
0	4072	1.747133341425	2
0	4100	1.755930686065	3
0	4111	1.764466686065	2
0	4120	1.764666686065	3
0	4127	1.773202686065	2
0	4155	1.782160030705	3
0	4162	1.790696030705	2
0	4221	1.808369375345	3
0	4240	1.816905375345	2
0	4249	1.817045375345	3
0	4262	1.825581375345	2
0	4294	1.834378719985	3
0	4306	1.842914719985	2
0	4315	1.843234719985	3
0	4322	1.851770719985	2
0	4350	1.860748064625	3
0	4357	1.869284064625	2
0	4385	1.878121409265	3
0	4392	1.886657409265	2
0	4401	1.886817409265	3
0	4412	1.895353409265	2
0	4440	1.904230753905	3
0	4447	1.912766753905	2
0	4475	1.921704098545	3
0	4482	1.930240098545	2
0	4491	1.930280098545	3
0	4502	1.938816098545	2
0	4534	1.947833443185	3
0	4541	1.956369443185	2
0	4611	1.982458787825	3
0	4618	1.990994787825	2
0	4673	2.008668132465	3
0	4680	2.017204132465	2
0	4712	2.026241477105	3
0	4719	2.034777477105	2
0	4728	2.034797477105	3
0	4735	2.043333477105	2
0	4763	2.052290821745	3
0	4770	2.060826821745	2
0	4779	2.061206821745	3
0	4790	2.069742821745	2
0	4830	2.078420166385	3
0	4841	2.086956166385	2
0	4869	2.095893511025	3
0	4880	2.104429511025	2
0	4912	2.113566855665	3
0	4919	2.122102855665	2
0	4928	2.122182855665	3
0	4935	2.130718855665	2
0	4944	2.130798855665	3
0	4951	2.139334855665	2
0	4979	2.148192200305	3
0	4986	2.156728200305	2
0	5037	2.174101544945	3
0	5052	2.182637544945	2
0	5061	2.183037544945	3
0	5072	2.191573544945	2
0	5142	2.217742889585	3
0	5153	2.226278889585	2
0	5162	2.226478889585	3
0	5175	2.235014889585	2
0	5188	2.235036234225	3
0	5199	2.243572234225	2
0	5240	2.252349578865	3
0	5251	2.260885578865	2
0	5260	2.260945578865	3
0	5271	2.269481578865	2
0	5280	2.269541578865	3
0	5291	2.278077578865	2
0	5323	2.286774923505	3
0	5334	2.295310923505	2
0	5335	2.295310923505	3
0	5358	2.303846923505	2
0	5367	2.304266923505	3
0	5378	2.312802923505	2
0	5410	2.321480268145	3
0	5421	2.330016268145	2
0	5430	2.330156268145	3
0	5451	2.338692268145	2
0	5483	2.347349612785	3
0	5491	2.355885612785	2
0	5500	2.356025612785	3
0	5511	2.364561612785	2
0	5512	2.364561612785	3
0	5527	2.373097612785	2
0	5536	2.373197612785	3
0	5551	2.381733612785	2
0	5606	2.399186957425	3
0	5613	2.407722957425	2
0	5645	2.416540302065	3
0	5656	2.425076302065	2
0	5665	2.425276302065	3
0	5682	2.433812302065	2
0	5699	2.434273646705	3
0	5710	2.442809646705	2
0	5711	2.442809646705	3
0	5735	2.451345646705	2
0	5794	2.468958991345	3
0	5813	2.477494991345	2
0	5822	2.477794991345	3
0	5841	2.486330991345	2
0	5892	2.503764335985	3
0	5899	2.512300335985	2
0	5908	2.512340335985	3
0	5915	2.520876335985	2
0	5924	2.520936335985	3
0	5935	2.529472335985	2
0	5963	2.538469680625	3
0	5974	2.547005680625	2
0	5983	2.547245680625	3
0	5990	2.555781680625	2
0	6064	2.581691025265	3
0	6071	2.590227025265	2
0	6080	2.590787025265	3
0	6101	2.599323025265	2
0	6137	2.608080369905	3
0	6145	2.616616369905	2
0	6154	2.616736369905	3
0	6161	2.625272369905	2
0	6170	2.625532369905	3
0	6177	2.634068369905	2
0	6228	2.651561714545	3
0	6235	2.660097714545	2
0	6309	2.686127059185	3
0	6316	2.694663059185	2
0	6356	2.703560403825	3
0	6371	2.712096403825	2
0	6453	2.738285748465	3
0	6468	2.746821748465	2
0	6527	2.764375093105	3
0	6534	2.772911093105	2
0	6543	2.773191093105	3
0	6550	2.781727093105	2
0	6578	2.790364437745	3
0	6593	2.798900437745	2
0	6602	2.799020437745	3
0	6613	2.807556437745	2
0	6664	2.824749782385	3
0	6679	2.833285782385	2
0	6711	2.842003127025	3
0	6734	2.850539127025	2
0	6743	2.850699127025	3
0	6756	2.859235127025	2
0	6769	2.859736471665	3
0	6788	2.868272471665	2
0	6817	2.877089816305	3
0	6824	2.885625816305	2
0	6833	2.885725816305	3
0	6844	2.894261816305	2
0	6853	2.894361816305	3
0	6860	2.902897816305	2
0	6888	2.911555160945	3
0	6895	2.920091160945	2
0	6942	2.937684505585	3
0	6957	2.946220505585	2
0	6966	2.946360505585	3
0	6973	2.954896505585	2
0	6982	2.955156505585	3
0	6993	2.963692505585	2
0	7044	2.981305850225	3
0	7051	2.989841850225	2
0	7129	3.015951194865	3
0	7140	3.024487194865	2
0	7207	3.042180539505	3
0	7218	3.050716539505	2
0	7246	3.059593884145	3
0	7253	3.068129884145	2
0	7289	3.077087228785	3
0	7300	3.085623228785	2
0	7347	3.103276573425	3
0	7354	3.111812573425	2
0	7363	3.112092573425	3
0	7378	3.120628573425	2
0	7406	3.129625918065	3
0	7421	3.138161918065	2
0	7457	3.147099262705	3
0	7464	3.155635262705	2
0	7473	3.155815262705	3
0	7484	3.164351262705	2
0	7520	3.173028607345	3
0	7527	3.181564607345	2
0	7536	3.181824607345	3
0	7543	3.190360607345	2
0	7575	3.199217951985	3
0	7586	3.207753951985	2
0	7618	3.216811296625	3
0	7629	3.225347296625	2
0	7661	3.234284641265	3
0	7681	3.242820641265	2
0	7706	3.251757985905	3
0	7714	3.260293985905	2
0	7742	3.269191330545	3
0	7749	3.277727330545	2
0	7808	3.295320675185	3
0	7819	3.303856675185	2
0	7847	3.312894019825	3
0	7858	3.321430019825	2
0	7905	3.339023364465	3
0	7916	3.347559364465	2
0	7963	3.364792709105	3
0	7970	3.373328709105	2
0	7979	3.373428709105	3
0	7986	3.381964709105	2
0	7987	3.381964709105	3
0	8006	3.390500709105	2
0	8057	3.408094053745	3
0	8064	3.416630053745	2
0	8073	3.416990053745	3
0	8086	3.425526053745	2
0	8118	3.434663398385	3
0	8134	3.443199398385	2
0	8166	3.452216743025	3
0	8177	3.460752743025	2
0	8209	3.469650087665	3
0	8220	3.478186087665	2
0	8221	3.478186087665	3
0	8236	3.486722087665	2
0	8287	3.503995432305	3
0	8302	3.512531432305	2
0	8315	3.512891432305	3
0	8328	3.521427432305	2
0	8341	3.521648776945	3
0	8352	3.530184776945	2
0	8361	3.530264776945	3
0	8373	3.538800776945	2
0	8382	3.538820776945	3
0	8389	3.547356776945	2
0	8417	3.556134121585	3
0	8424	3.564670121585	2
0	8456	3.573647466225	3
0	8467	3.582183466225	2
0	8476	3.582203466225	3
0	8493	3.590739466225	2
0	8506	3.590860810865	3
0	8513	3.599396810865	2
0	8522	3.599516810865	3
0	8538	3.608052810865	2
0	8570	3.617190155505	3
0	8585	3.625726155505	2
0	8617	3.634643500145	3
0	8628	3.643179500145	2
0	8637	3.643199500145	3
0	8648	3.651735500145	2
0	8695	3.669408844785	3
0	8702	3.677944844785	2
0	8730	3.686722189425	3
0	8741	3.695258189425	2
0	8777	3.704295534065	3
0	8793	3.712831534065	2
0	8818	3.721608878705	3
0	8826	3.730144878705	2
0	8835	3.730264878705	3
0	8842	3.738800878705	2
0	8851	3.738880878705	3
0	8862	3.747416878705	2
0	8890	3.756474223345	3
0	8897	3.765010223345	2
0	8906	3.765110223345	3
0	8913	3.773646223345	2
0	8941	3.782483567985	3
0	8952	3.791019567985	2
0	9003	3.808632912625	3
0	9018	3.817168912625	2
0	9027	3.817408912625	3
0	9040	3.825944912625	2
0	9052	3.825946257265	3
0	9060	3.834482257265	2
0	9069	3.835062257265	3
0	9087	3.843598257265	2
0	9100	3.843979601905	3
0	9111	3.852515601905	2
0	9167	3.869968946545	3
0	9178	3.878504946545	2
0	9187	3.878744946545	3
0	9198	3.887280946545	2
0	9249	3.904754291185	3
0	9256	3.913290291185	2
0	9288	3.922127635825	3
0	9299	3.930663635825	2
0	9327	3.939520980465	3
0	9334	3.948056980465	2
0	9370	3.956774325105	3
0	9385	3.965310325105	2
0	9417	3.974267669745	3
0	9432	3.982803669745	2
0	9441	3.982823669745	3
0	9448	3.991359669745	2
0	9457	3.991439669745	3
0	9464	3.999975669745	2
0	9496	4.008833014385	3
0	9507	4.017369014385	2
0	9516	4.017649014385	3
0	9523	4.026185014385	2
0	9559	4.034862359025	3
0	9570	4.043398359025	2
0	9579	4.043698359025	3
0	9586	4.052234359025	2
0	9614	4.061071703665	3
0	9629	4.069607703665	2
0	9657	4.078745048305	3
0	9664	4.087281048305	2
0	9692	4.095858392945	3
0	9703	4.104394392945	2
0	9712	4.104534392945	3
0	9723	4.113070392945	2
0	9755	4.121927737585	3
0	9762	4.130463737585	2
0	9771	4.130723737585	3
0	9778	4.139259737585	2
0	9787	4.139359737585	3
0	9794	4.147895737585	2
0	9841	4.165349082225	3
0	9848	4.173885082225	2
0	9849	4.173885082225	3
0	9864	4.182421082225	2
0	9957	4.216906426865	3
0	9968	4.225442426865	2
0	9977	4.225602426865	3
0	9988	4.234138426865	2
0	10047	4.251831771505	3
0	10054	4.260367771505	2
0	10101	4.278001116145	3
0	10112	4.286537116145	2
0	10148	4.295234460785	3
0	10159	4.303770460785	2
0	10214	4.321423805425	3
0	10221	4.329959805425	2
0	10230	4.330279805425	3
0	10237	4.338815805425	2
0	10246	4.338875805425	3
0	10253	4.347411805425	2
0	10281	4.356089150065	3
0	10288	4.364625150065	2
0	10324	4.373722494705	3
0	10331	4.382258494705	2
0	10340	4.382358494705	3
0	10363	4.390894494705	2
0	10372	4.391194494705	3
0	10385	4.399730494705	2
0	10421	4.408447839345	3
0	10433	4.416983839345	2
0	10442	4.417083839345	3
0	10449	4.425619839345	2
0	10477	4.434597183985	3
0	10496	4.443133183985	2
0	10524	4.451810528625	3
0	10535	4.460346528625	2
0	10544	4.460486528625	3
0	10551	4.469022528625	2
0	10583	4.477859873265	3
0	10590	4.486395873265	2
0	10618	4.495293217905	3
0	10625	4.503829217905	2
0	10653	4.512786562545	3
0	10660	4.521322562545	2
0	10669	4.521362562545	3
0	10680	4.529898562545	2
0	10689	4.529998562545	3
0	10700	4.538534562545	2
0	10709	4.538614562545	3
0	10716	4.547150562545	2
0	10725	4.547170562545	3
0	10732	4.555706562545	2
0	10760	4.564663907185	3
0	10771	4.573199907185	2
0	10780	4.573299907185	3
0	10795	4.581835907185	2
0	10846	4.599209251825	3
0	10853	4.607745251825	2
0	10862	4.607825251825	3
0	10877	4.616361251825	2
0	10909	4.625278596465	3
0	10916	4.633814596465	2
0	10944	4.642611941105	3
0	10951	4.651147941105	2
0	11006	4.668561285745	3
0	11025	4.677097285745	2
0	11053	4.686034630385	3
0	11060	4.694570630385	2
0	11092	4.703567975025	3
0	11107	4.712103975025	2
0	11135	4.720921319665	3
0	11146	4.729457319665	2
0	11155	4.729477319665	3
0	11162	4.738013319665	2
0	11236	4.764122664305	3
0	11243	4.772658664305	2
0	11252	4.772778664305	3
0	11259	4.781314664305	2
0	11299	4.790232008945	3
0	11306	4.798768008945	2
0	11338	4.807885353585	3
0	11349	4.816421353585	2
0	11400	4.833774698225	3
0	11407	4.842310698225	2
0	11416	4.842450698225	3
0	11423	4.850986698225	2
0	11459	4.859904042865	3
0	11470	4.868440042865	2
0	11479	4.868500042865	3
0	11486	4.877036042865	2
0	11495	4.877296042865	3
0	11508	4.885832042865	2
0	11521	4.886293387505	3
0	11528	4.894829387505	2
0	11561	4.903846732145	3
0	11568	4.912382732145	2
0	11577	4.912462732145	3
0	11584	4.920998732145	2
0	11616	4.929956076785	3
0	11623	4.938492076785	2
0	11659	4.947609421425	3
0	11670	4.956145421425	2
0	11710	4.964782766065	3
0	11721	4.973318766065	2
0	11730	4.973458766065	3
0	11737	4.981994766065	2
0	11765	4.991152110705	3
0	11776	4.999688110705	2
0	11804	5.008645455345	3
0	11811	5.017181455345	2
0	11812	5.017181455345	3
0	11835	5.025717455345	2
0	11871	5.034614799985	3
0	11882	5.043150799985	2
0	11891	5.043210799985	3
0	11898	5.051746799985	2
0	11930	5.060484144625	3
0	11937	5.069020144625	2
0	11965	5.078077489265	3
0	11976	5.086613489265	2
0	11985	5.086633489265	3
0	11996	5.095169489265	2
0	12043	5.112742833905	3
0	12054	5.121278833905	2
0	12063	5.121318833905	3
0	12070	5.129854833905	2
0	12079	5.129874833905	3
0	12086	5.138410833905	2
0	12145	5.156084178545	3
0	12156	5.164620178545	2
0	12211	5.181893523185	3
0	12222	5.190429523185	2
0	12231	5.190529523185	3
0	12246	5.199065523185	2
0	12274	5.207982867825	3
0	12281	5.216518867825	2
0	12290	5.216758867825	3
0	12297	5.225294867825	2
0	12325	5.234092212465	3
0	12340	5.242628212465	2
0	12368	5.251585557105	3
0	12379	5.260121557105	2
0	12380	5.260121557105	3
0	12399	5.268657557105	2
0	12400	5.268657557105	3
0	12419	5.277193557105	2
0	12447	5.286090901745	3
0	12454	5.294626901745	2
0	12486	5.303664246385	3
0	12497	5.312200246385	2
0	12529	5.321277591025	3
0	12544	5.329813591025	2
0	12572	5.338630935665	3
0	12579	5.347166935665	2
0	12626	5.364640280305	3
0	12633	5.373176280305	2
0	12642	5.373416280305	3
0	12653	5.381952280305	2
0	12685	5.391029624945	3
0	12692	5.399565624945	2
0	12743	5.417098969585	3
0	12754	5.425634969585	2
0	12763	5.425994969585	3
0	12770	5.434530969585	2
0	12798	5.443148314225	3
0	12805	5.451684314225	2
0	12814	5.451704314225	3
0	12821	5.460240314225	2
0	12830	5.460580314225	3
0	12841	5.469116314225	2
0	12896	5.486689658865	3
0	12903	5.495225658865	2
0	12958	5.512639003505	3
0	12965	5.521175003505	2
0	13001	5.530012348145	3
0	13016	5.538548348145	2
0	13025	5.538748348145	3
0	13032	5.547284348145	2
0	13083	5.564977692785	3
0	13098	5.573513692785	2
0	13157	5.591207037425	3
0	13164	5.599743037425	2
0	13173	5.599863037425	3
0	13180	5.608399037425	2
0	13208	5.617476382065	3
0	13223	5.626012382065	2
0	13232	5.626152382065	3
0	13239	5.634688382065	2
0	13267	5.643605726705	3
0	13274	5.652141726705	2
0	13283	5.652321726705	3
0	13302	5.660857726705	2
0	13330	5.669815071345	3
0	13337	5.678351071345	2
0	13369	5.687408415985	3
0	13376	5.695944415985	2
0	13412	5.704681760625	3
0	13428	5.713217760625	2
0	13434	5.713397760625	3
0	13441	5.721933760625	2
0	13450	5.721993760625	3
0	13458	5.730529760625	2
0	13467	5.730669760625	3
0	13474	5.739205760625	2
0	13529	5.756599105265	3
0	13540	5.765135105265	2
0	13568	5.774132449905	3
0	13575	5.782668449905	2
0	13634	5.800161794545	3
0	13641	5.808697794545	2
0	13650	5.808857794545	3
0	13661	5.817393794545	2
0	13697	5.826491139185	3
0	13712	5.835027139185	2
0	13721	5.835187139185	3
0	13728	5.843723139185	2
0	13756	5.852800483825	3
0	13763	5.861336483825	2
0	13814	5.878649828465	3
0	13825	5.887185828465	2
0	13857	5.896303173105	3
0	13864	5.904839173105	2
0	13900	5.913636517745	3
0	13920	5.922172517745	2
0	13926	5.922312517745	3
0	13945	5.930848517745	2
0	14005	5.948241862385	3
0	14012	5.956777862385	2
0	14021	5.957057862385	3
0	14028	5.965593862385	2
0	14037	5.965653862385	3
0	14048	5.974189862385	2
0	14076	5.983067207025	3
0	14083	5.991603207025	2
0	14092	5.991783207025	3
0	14107	6.000319207025	2
0	14139	6.009096551665	3
0	14146	6.017632551665	2
0	14155	6.017712551665	3
0	14162	6.026248551665	2
0	14171	6.026308551665	3
0	14178	6.034844551665	2
0	14210	6.043501896305	3
0	14230	6.052037896305	2
0	14275	6.069491240945	3
0	14282	6.078027240945	2
0	14314	6.086844585585	3
0	14325	6.095380585585	2
0	14334	6.095440585585	3
0	14349	6.103976585585	2
0	14381	6.112933930225	3
0	14392	6.121469930225	2
0	14432	6.130427274865	3
0	14439	6.138963274865	2
0	14448	6.139483274865	3
0	14455	6.148019274865	2
0	14510	6.165572619505	3
0	14521	6.174108619505	2
0	14591	6.200257964145	3
0	14602	6.208793964145	2
0	14611	6.208933964145	3
0	14622	6.217469964145	2
0	14631	6.217809964145	3
0	14638	6.226345964145	2
0	14743	6.261011308785	3
0	14754	6.269547308785	2
0	14794	6.278464653425	3
0	14805	6.287000653425	2
0	14910	6.321725998065	3
0	14917	6.330261998065	2
0	14953	6.339059342705	3
0	14968	6.347595342705	2
0	14977	6.347695342705	3
0	14990	6.356231342705	2
0	15003	6.356392687345	3
0	15022	6.364928687345	2
0	15051	6.373526031985	3
0	15058	6.382062031985	2
0	15067	6.382202031985	3
0	15082	6.390738031985	2
0	15091	6.390938031985	3
0	15102	6.399474031985	2
0	15111	6.399614031985	3
0	15122	6.408150031985	2
0	15154	6.416827376625	3
0	15161	6.425363376625	2
0	15170	6.425843376625	3
0	15181	6.434379376625	2
0	15213	6.443056721265	3
0	15224	6.451592721265	2
0	15233	6.451672721265	3
0	15240	6.460208721265	2
0	15249	6.460408721265	3
0	15256	6.468944721265	2
0	15284	6.477802065905	3
0	15295	6.486338065905	2
0	15327	6.495195410545	3
0	15334	6.503731410545	2
0	15343	6.504131410545	3
0	15350	6.512667410545	2
0	15378	6.521664755185	3
0	15385	6.530200755185	2
0	15421	6.538978099825	3
0	15432	6.547514099825	2
0	15464	6.556391444465	3
0	15471	6.564927444465	2
0	15507	6.573784789105	3
0	15518	6.582320789105	2
0	15527	6.582360789105	3
0	15546	6.590896789105	2
0	15689	6.642674133745	3
0	15696	6.651210133745	2
0	15728	6.660007478385	3
0	15744	6.668543478385	2
0	15750	6.668903478385	3
0	15757	6.677439478385	2
0	15758	6.677439478385	3
0	15778	6.685975478385	2
0	15787	6.686015478385	3
0	15798	6.694551478385	2
0	15830	6.703408823025	3
0	15837	6.711944823025	2
0	15846	6.712164823025	3
0	15853	6.720700823025	2
0	15862	6.720760823025	3
0	15877	6.729296823025	2
0	15905	6.738234167665	3
0	15916	6.746770167665	2
0	15963	6.764063512305	3
0	15974	6.772599512305	2
0	16010	6.781716856945	3
0	16021	6.790252856945	2
0	16072	6.807946201585	3
0	16079	6.816482201585	2
0	16107	6.825299546225	3
0	16114	6.833835546225	2
0	16123	6.834135546225	3
0	16138	6.842671546225	2
0	16147	6.842711546225	3
0	16154	6.851247546225	2
0	16240	6.877396890865	3
0	16251	6.885932890865	2
0	16283	6.894990235505	3
0	16290	6.903526235505	2
0	16318	6.912643580145	3
0	16329	6.921179580145	2
0	16392	6.938512924785	3
0	16403	6.947048924785	2
0	16462	6.964662269425	3
0	16473	6.973198269425	2
0	16482	6.973318269425	3
0	16489	6.981854269425	2
0	16559	7.008023614065	3
0	16570	7.016559614065	2
0	16598	7.025456958705	3
0	16605	7.033992958705	2
0	16649	7.042950303345	3
0	16656	7.051486303345	2
0	16692	7.060603647985	3
0	16708	7.069139647985	2
0	16769	7.086352992625	3
0	16785	7.094888992625	2
0	16814	7.104006337265	3
0	16822	7.112542337265	2
0	16823	7.112542337265	3
0	16842	7.121078337265	2
0	16874	7.130015681905	3
0	16894	7.138551681905	2
0	16919	7.147429026545	3
0	16931	7.155965026545	2
0	16959	7.164842371185	3
0	16966	7.173378371185	2
0	17002	7.182095715825	3
0	17017	7.190631715825	2
0	17053	7.199749060465	3
0	17069	7.208285060465	2
0	17118	7.225918405105	3
0	17125	7.234454405105	2
0	17134	7.234614405105	3
0	17141	7.243150405105	2
0	17200	7.260323749745	3
0	17211	7.268859749745	2
0	17247	7.277877094385	3
0	17254	7.286413094385	2
0	17317	7.304006439025	3
0	17324	7.312542439025	2
0	17352	7.321439783665	3
0	17363	7.329975783665	2
0	17372	7.330055783665	3
0	17379	7.338591783665	2
0	17388	7.338711783665	3
0	17395	7.347247783665	2
0	17446	7.364721128305	3
0	17453	7.373257128305	2
0	17485	7.382054472945	3
0	17496	7.390590472945	2
0	17505	7.390830472945	3
0	17524	7.399366472945	2
0	17533	7.399626472945	3
0	17548	7.408162472945	2
0	17576	7.416959817585	3
0	17583	7.425495817585	2
0	17623	7.434573162225	3
0	17630	7.443109162225	2
0	17658	7.452026506865	3
0	17665	7.460562506865	2
0	17697	7.469259851505	3
0	17704	7.477795851505	2
0	17740	7.486873196145	3
0	17747	7.495409196145	2
0	17775	7.504246540785	3
0	17782	7.512782540785	2
0	17791	7.513062540785	3
0	17798	7.521598540785	2
0	17830	7.530335885425	3
0	17845	7.538871885425	2
0	17854	7.539271885425	3
0	17861	7.547807885425	2
0	17889	7.556805230065	3
0	17896	7.565341230065	2
0	17905	7.565381230065	3
0	17912	7.573917230065	2
0	17986	7.600026574705	3
0	17993	7.608562574705	2
0	18025	7.617459919345	3
0	18032	7.625995919345	2
0	18041	7.626275919345	3
0	18066	7.634811919345	2
0	18102	7.643969263985	3
0	18110	7.652505263985	2
0	18150	7.661522608625	3
0	18165	7.670058608625	2
0	18174	7.670458608625	3
0	18187	7.678994608625	2
0	18199	7.678995953265	3
0	18207	7.687531953265	2
0	18216	7.687671953265	3
0	18228	7.696207953265	2
0	18237	7.696227953265	3
0	18248	7.704763953265	2
0	18280	7.713561297905	3
0	18291	7.722097297905	2
0	18338	7.739730642545	3
0	18353	7.748266642545	2
0	18362	7.748386642545	3
0	18377	7.756922642545	2
0	18405	7.765839987185	3
0	18412	7.774375987185	2
0	18440	7.783273331825	3
0	18447	7.791809331825	2
0	18521	7.817918676465	3
0	18540	7.826454676465	2
0	18595	7.844028021105	3
0	18614	7.852564021105	2
0	18642	7.861281365745	3
0	18649	7.869817365745	2
0	18677	7.878674710385	3
0	18688	7.887210710385	2
0	18724	7.896188055025	3
0	18735	7.904724055025	2
0	18763	7.913821399665	3
0	18774	7.922357399665	2
0	18783	7.922397399665	3
0	18794	7.930933399665	2
0	18830	7.939610744305	3
0	18849	7.948146744305	2
0	18877	7.956964088945	3
0	18888	7.965500088945	2
0	18947	7.983013433585	3
0	18954	7.991549433585	2
0	19005	8.008922778225	3
0	19012	8.017458778225	2
0	19040	8.026496122865	3
0	19055	8.035032122865	2
0	19102	8.052685467505	3
0	19113	8.061221467505	2
0	19141	8.070118812145	3
0	19148	8.078654812145	2
0	19203	8.096348156785	3
0	19214	8.104884156785	2
0	19250	8.113901501425	3
0	19261	8.122437501425	2
0	19293	8.131074846065	3
0	19300	8.139610846065	2
0	19366	8.165560190705	3
0	19373	8.174096190705	2
0	19405	8.183053535345	3
0	19412	8.191589535345	2
0	19440	8.200466879985	3
0	19447	8.209002879985	2
0	19479	8.218140224625	3
0	19486	8.226676224625	2
0	19537	8.244329569265	3
0	19544	8.252865569265	2
0	19576	8.261602913905	3
0	19583	8.270138913905	2
0	19592	8.270618913905	3
0	19609	8.279154913905	2
0	19621	8.279156258545	3
0	19629	8.287692258545	2
0	19638	8.287712258545	3
0	19646	8.296248258545	2
0	19701	8.313821603185	3
0	19716	8.322357603185	2
0	19767	8.339810947825	3
0	19786	8.348346947825	2
0	19822	8.357224292465	3
0	19829	8.365760292465	2
0	19865	8.374557637105	3
0	19876	8.383093637105	2
0	19904	8.391830981745	3
0	19915	8.400366981745	2
0	19943	8.409124326385	3
0	19950	8.417660326385	2
0	19982	8.426477671025	3
0	19989	8.435013671025	2
0	20017	8.444031015665	3
0	20028	8.452567015665	2
0	20037	8.452607015665	3
0	20058	8.461143015665	2
0	20071	8.461224360305	3
0	20078	8.469760360305	2
0	20130	8.487433704945	3
0	20137	8.495969704945	2
0	20146	8.496169704945	3
0	20153	8.504705704945	2
0	20181	8.513563049585	3
0	20192	8.522099049585	2
0	20201	8.522139049585	3
0	20212	8.530675049585	2
0	20259	8.548088394225	3
0	20266	8.556624394225	2
0	20275	8.556824394225	3
0	20292	8.565360394225	2
0	20305	8.565581738865	3
0	20312	8.574117738865	2
0	20349	8.582935083505	3
0	20356	8.591471083505	2
0	20365	8.591531083505	3
0	20376	8.600067083505	2
0	20377	8.600067083505	3
0	20404	8.608603083505	2
0	20432	8.617460428145	3
0	20455	8.625996428145	2
0	20464	8.626156428145	3
0	20475	8.634692428145	2
0	20484	8.635092428145	3
0	20501	8.643628428145	2
0	20514	8.644049772785	3
0	20521	8.652585772785	2
0	20530	8.652665772785	3
0	20542	8.661201772785	2
0	20574	8.669959117425	3
0	20590	8.678495117425	2
0	20596	8.678635117425	3
0	20603	8.687171117425	2
0	20651	8.704804462065	3
0	20662	8.713340462065	2
0	20671	8.713520462065	3
0	20682	8.722056462065	2
0	20710	8.730953806705	3
0	20717	8.739489806705	2
0	20726	8.739869806705	3
0	20733	8.748405806705	2
0	20761	8.757443151345	3
0	20768	8.765979151345	2
0	20800	8.774616495985	3
0	20807	8.783152495985	2
0	20835	8.792169840625	3
0	20846	8.800705840625	2
0	20874	8.809763185265	3
0	20881	8.818299185265	2
0	20932	8.835792529905	3
0	20943	8.844328529905	2
0	20944	8.844328529905	3
0	20959	8.852864529905	2
0	21006	8.870517874545	3
0	21013	8.879053874545	2
0	21022	8.879353874545	3
0	21029	8.887889874545	2
0	21080	8.905523219185	3
0	21087	8.914059219185	2
0	21115	8.922896563825	3
0	21126	8.931432563825	2
0	21154	8.940109908465	3
0	21161	8.948645908465	2
0	21189	8.957403253105	3
0	21204	8.965939253105	2
0	21213	8.966179253105	3
0	21224	8.974715253105	2
0	21252	8.983692597745	3
0	21263	8.992228597745	2
0	21291	9.001385942385	3
0	21302	9.009921942385	2
0	21338	9.018659287025	3
0	21345	9.027195287025	2
0	21354	9.027435287025	3
0	21361	9.035971287025	2
0	21412	9.053384631665	3
0	21419	9.061920631665	2
0	21466	9.079313976305	3
0	21473	9.087849976305	2
0	21482	9.088109976305	3
0	21493	9.096645976305	2
0	21575	9.122675320945	3
0	21586	9.131211320945	2
0	21595	9.131311320945	3
0	21608	9.139847320945	2
0	21664	9.157380665585	3
0	21671	9.165916665585	2
0	21680	9.165956665585	3
0	21697	9.174492665585	2
0	21714	9.174854010225	3
0	21734	9.183390010225	2
0	21740	9.183750010225	3
0	21748	9.192286010225	2
0	21757	9.192346010225	3
0	21769	9.200882010225	2
0	21805	9.209759354865	3
0	21812	9.218295354865	2
0	21863	9.235988699505	3
0	21874	9.244524699505	2
0	21914	9.253602044145	3
0	21921	9.262138044145	2
0	21949	9.271275388785	3
0	21960	9.279811388785	2
0	21969	9.279831388785	3
0	21976	9.288367388785	2
0	22035	9.306020733425	3
0	22042	9.314556733425	2
0	22089	9.332210078065	3
0	22096	9.340746078065	2
0	22124	9.349743422705	3
0	22135	9.358279422705	2
0	22144	9.358539422705	3
0	22159	9.367075422705	2
0	22168	9.367095422705	3
0	22175	9.375631422705	2
0	22245	9.401840767345	3
0	22252	9.410376767345	2
0	22261	9.410496767345	3
0	22274	9.419032767345	2
0	22287	9.419094111985	3
0	22294	9.427630111985	2
0	22323	9.436787456625	3
0	22334	9.445323456625	2
0	22362	9.454380801265	3
0	22373	9.462916801265	2
0	22382	9.463016801265	3
0	22393	9.471552801265	2
0	22425	9.480550145905	3
0	22440	9.489086145905	2
0	22518	9.515255490545	3
0	22533	9.523791490545	2
0	22584	9.541324835185	3
0	22591	9.549860835185	2
0	22623	9.558838179825	3
0	22630	9.567374179825	2
0	22662	9.576171524465	3
0	22677	9.584707524465	2
0	22713	9.593404869105	3
0	22720	9.601940869105	2
0	22729	9.602140869105	3
0	22736	9.610676869105	2
0	22764	9.619794213745	3
0	22775	9.628330213745	2
0	22803	9.637387558385	3
0	22810	9.645923558385	2
0	22842	9.654660903025	3
0	22853	9.663196903025	2
0	22881	9.672174247665	3
0	22892	9.680710247665	2
0	22920	9.689747592305	3
0	22931	9.698283592305	2
0	22963	9.707220936945	3
0	22983	9.715756936945	2
0	22989	9.715856936945	3
0	22996	9.724392936945	2
0	23005	9.724412936945	3
0	23013	9.732948936945	2
0	23022	9.733188936945	3
0	23033	9.741724936945	2
0	23069	9.750822281585	3
0	23076	9.759358281585	2
0	23146	9.785227626225	3
0	23157	9.793763626225	2
0	23189	9.802760970865	3
0	23200	9.811296970865	2
0	23240	9.820454315505	3
0	23251	9.828990315505	2
0	23260	9.829290315505	3
0	23271	9.837826315505	2
0	23280	9.837886315505	3
0	23287	9.846422315505	2
0	23315	9.855319660145	3
0	23322	9.863855660145	2
0	23331	9.863975660145	3
0	23338	9.872511660145	2
0	23374	9.881449004785	3
0	23385	9.889985004785	2
0	23394	9.890045004785	3
0	23405	9.898581004785	2
0	23433	9.907258349425	3
0	23444	9.915794349425	2
0	23453	9.916014349425	3
0	23460	9.924550349425	2
0	23488	9.933327694065	3
0	23507	9.941863694065	2
0	23535	9.950501038705	3
0	23542	9.959037038705	2
0	23574	9.967914383345	3
0	23581	9.976450383345	2
0	23728	10.028267727985	3
0	23735	10.036803727985	2
0	23763	10.045721072625	3
0	23778	10.054257072625	2
0	23814	10.063274417265	3
0	23821	10.071810417265	2
0	23853	10.080647761905	3
0	23864	10.089183761905	2
0	23873	10.089603761905	3
0	23880	10.098139761905	2
0	23908	10.106937106545	3
0	23915	10.115473106545	2
0	23951	10.124310451185	3
0	23971	10.132846451185	2
0	23977	10.133286451185	3
0	23988	10.141822451185	2
0	23997	10.141902451185	3
0	24009	10.150438451185	2
0	24018	10.150558451185	3
0	24035	10.159094451185	2
0	24052	10.159255795825	3
0	24072	10.167791795825	2
0	24078	10.167891795825	3
0	24098	10.176427795825	2
0	24107	10.176507795825	3
0	24123	10.185043795825	2
0	24151	10.193801140465	3
0	24162	10.202337140465	2
0	24171	10.202397140465	3
0	24182	10.210933140465	2
0	24218	10.219970485105	3
0	24229	10.228506485105	2
0	24257	10.237183829745	3
0	24268	10.245719829745	2
0	24277	10.246139829745	3
0	24304	10.254675829745	2
0	24351	10.272209174385	3
0	24358	10.280745174385	2
0	24417	10.298338519025	3
0	24424	10.306874519025	2
0	24460	10.315991863665	3
0	24475	10.324527863665	2
0	24511	10.333345208305	3
0	24522	10.341881208305	2
0	24531	10.342041208305	3
0	24542	10.350577208305	2
0	24570	10.359554552945	3
0	24577	10.368090552945	2
0	24586	10.368310552945	3
0	24597	10.376846552945	2
0	24606	10.376926552945	3
0	24623	10.385462552945	2
0	24655	10.394399897585	3
0	24663	10.402935897585	2
0	24691	10.412093242225	3
0	24702	10.420629242225	2
0	24711	10.421009242225	3
0	24726	10.429545242225	2
0	24758	10.438442586865	3
0	24765	10.446978586865	2
0	24793	10.455655931505	3
0	24800	10.464191931505	2
0	24809	10.464571931505	3
0	24816	10.473107931505	2
0	24844	10.481705276145	3
0	24855	10.490241276145	2
0	24930	10.507634620785	3
0	24941	10.516170620785	2
0	24950	10.516190620785	3
0	24957	10.524726620785	2
0	24966	10.524766620785	3
0	24973	10.533302620785	2
0	25024	10.550975965425	3
0	25035	10.559511965425	2
0	25106	10.576985310065	3
0	25117	10.585521310065	2
0	25126	10.585641310065	3
0	25133	10.594177310065	2
0	25142	10.594357310065	3
0	25153	10.602893310065	2
0	25181	10.611650654705	3
0	25188	10.620186654705	2
0	25258	10.646355999345	3
0	25269	10.654891999345	2
0	25278	10.654991999345	3
0	25285	10.663527999345	2
0	25340	10.681201343985	3
0	25347	10.689737343985	2
0	25360	10.689997343985	3
0	25375	10.698533343985	2
0	25422	10.715766688625	3
0	25429	10.724302688625	2
0	25461	10.733180033265	3
0	25468	10.741716033265	2
0	25500	10.750793377905	3
0	25511	10.759329377905	2
0	25539	10.768186722545	3
0	25550	10.776722722545	2
0	25582	10.785700067185	3
0	25593	10.794236067185	2
0	25629	10.803293411825	3
0	25649	10.811829411825	2
0	25674	10.820946756465	3
0	25686	10.829482756465	2
0	25714	10.838560101105	3
0	25725	10.847096101105	2
0	25757	10.856093445745	3
0	25764	10.864629445745	2
0	25792	10.873386790385	3
0	25807	10.881922790385	2
0	25835	10.890920135025	3
0	25846	10.899456135025	2
0	25901	10.917089479665	3
0	25912	10.925625479665	2
0	25948	10.934522824305	3
0	25959	10.943058824305	2
0	25991	10.951776168945	3
0	25998	10.960312168945	2
0	26007	10.960832168945	3
0	26014	10.969368168945	2
0	26065	10.987061513585	3
0	26076	10.995597513585	2
0	26112	11.004754858225	3
0	26119	11.013290858225	2
0	26155	11.022028202865	3
0	26162	11.030564202865	2
0	26198	11.039401547505	3
0	26205	11.047937547505	2
0	26214	11.048077547505	3
0	26225	11.056613547505	2
0	26234	11.056693547505	3
0	26251	11.065229547505	2
0	26264	11.065270892145	3
0	26271	11.073806892145	2
0	26300	11.082864236785	3
0	26315	11.091400236785	2
0	26343	11.100277581425	3
0	26350	11.108813581425	2
0	26378	11.117590926065	3
0	26385	11.126126926065	2
0	26413	11.135164270705	3
0	26420	11.143700270705	2
0	26429	11.144240270705	3
0	26442	11.152776270705	2
0	26474	11.161853615345	3
0	26486	11.170389615345	2
0	26495	11.170889615345	3
0	26510	11.179425615345	2
0	26542	11.188502959985	3
0	26549	11.197038959985	2
0	26577	11.205896304625	3
0	26588	11.214432304625	2
0	26589	11.214432304625	3
0	26612	11.222968304625	2
0	26640	11.231985649265	3
0	26647	11.240521649265	2
0	26698	11.258214993905	3
0	26705	11.266750993905	2
0	26760	11.284264338545	3
0	26767	11.292800338545	2
0	26776	11.292820338545	3
0	26791	11.301356338545	2
0	26823	11.310073683185	3
0	26834	11.318609683185	2
0	26843	11.318669683185	3
0	26870	11.327205683185	2
0	26902	11.336283027825	3
0	26913	11.344819027825	2
0	26941	11.353476372465	3
0	26952	11.362012372465	2
0	26980	11.370889717105	3
0	26987	11.379425717105	2
0	26996	11.379745717105	3
0	27003	11.388281717105	2
0	27050	11.405455061745	3
0	27061	11.413991061745	2
0	27070	11.414071061745	3
0	27081	11.422607061745	2
0	27128	11.440300406385	3
0	27135	11.448836406385	2
0	27144	11.448856406385	3
0	27155	11.457392406385	2
0	27187	11.466189751025	3
0	27198	11.474725751025	2
0	27226	11.483483095665	3
0	27233	11.492019095665	2
0	27261	11.501036440305	3
0	27268	11.509572440305	2
0	27281	11.509932440305	3
0	27292	11.518468440305	2
0	27347	11.535621784945	3
0	27354	11.544157784945	2
0	27363	11.544377784945	3
0	27370	11.552913784945	2
0	27379	11.553153784945	3
0	27386	11.561689784945	2
0	27395	11.561789784945	3
0	27402	11.570325784945	2
0	27434	11.579023129585	3
0	27445	11.587559129585	2
0	27500	11.605092474225	3
0	27511	11.613628474225	2
0	27520	11.613828474225	3
0	27531	11.622364474225	2
0	27540	11.622384474225	3
0	27547	11.630920474225	2
0	27594	11.648453818865	3
0	27601	11.656989818865	2
0	27652	11.674683163505	3
0	27659	11.683219163505	2
0	27668	11.683579163505	3
0	27675	11.692115163505	2
0	27707	11.701032508145	3
0	27714	11.709568508145	2
0	27723	11.709588508145	3
0	27730	11.718124508145	2
0	27739	11.718364508145	3
0	27750	11.726900508145	2
0	27805	11.744413852785	3
0	27816	11.752949852785	2
0	27825	11.753069852785	3
0	27836	11.761605852785	2
0	27864	11.770543197425	3
0	27875	11.779079197425	2
0	27907	11.788156542065	3
0	27914	11.796692542065	2
0	27973	11.814125886705	3
0	27988	11.822661886705	2
0	27997	11.822921886705	3
0	28016	11.831457886705	2
0	28075	11.849031231345	3
0	28091	11.857567231345	2
0	28120	11.866304575985	3
0	28132	11.874840575985	2
0	28141	11.874940575985	3
0	28148	11.883476575985	2
0	28157	11.883596575985	3
0	28164	11.892132575985	2
0	28173	11.892452575985	3
0	28180	11.900988575985	2
0	28308	11.944229920625	3
0	28315	11.952765920625	2
0	28324	11.952905920625	3
0	28335	11.961441920625	2
0	28367	11.970259265265	3
0	28374	11.978795265265	2
0	28383	11.978875265265	3
0	28394	11.987411265265	2
0	28403	11.987811265265	3
0	28414	11.996347265265	2
0	28480	12.022556609905	3
0	28495	12.031092609905	2
0	28504	12.031392609905	3
0	28511	12.039928609905	2
0	28543	12.048965954545	3
0	28554	12.057501954545	2
0	28563	12.057621954545	3
0	28578	12.066157954545	2
0	28629	12.083751299185	3
0	28636	12.092287299185	2
0	28664	12.101044643825	3
0	28671	12.109580643825	2
0	28680	12.109860643825	3
0	28691	12.118396643825	2
0	28719	12.127153988465	3
0	28734	12.135689988465	2
0	28747	12.136009988465	3
0	28754	12.144545988465	2
0	28805	12.162179333105	3
0	28816	12.170715333105	2
0	28825	12.171015333105	3
0	28840	12.179551333105	2
0	28849	12.179691333105	3
0	28860	12.188227333105	2
0	28919	12.205760677745	3
0	28938	12.214296677745	2
0	29020	12.240506022385	3
0	29035	12.249042022385	2
0	29067	12.257859367025	3
0	29078	12.266395367025	2
0	29087	12.266475367025	3
0	29098	12.275011367025	2
0	29126	12.283948711665	3
0	29133	12.292484711665	2
0	29165	12.301382056305	3
0	29172	12.309918056305	2
0	29212	12.318975400945	3
0	29219	12.327511400945	2
0	29228	12.327771400945	3
0	29239	12.336307400945	2
0	29271	12.345404745585	3
0	29278	12.353940745585	2
0	29310	12.362738090225	3
0	29321	12.371274090225	2
0	29395	12.397423434865	3
0	29402	12.405959434865	2
0	29461	12.423392779505	3
0	29472	12.431928779505	2
0	29500	12.441026124145	3
0	29507	12.449562124145	2
0	29539	12.458639468785	3
0	29546	12.467175468785	2
0	29616	12.493344813425	3
0	29627	12.501880813425	2
0	29636	12.502320813425	3
0	29647	12.510856813425	2
0	29698	12.528330158065	3
0	29705	12.536866158065	2
0	29706	12.536866158065	3
0	29721	12.545402158065	2
0	29776	12.562995502705	3
0	29787	12.571531502705	2
0	29796	12.571791502705	3
0	29803	12.580327502705	2
0	29812	12.580487502705	3
0	29825	12.589023502705	2
0	29861	12.597920847345	3
0	29869	12.606456847345	2
0	29878	12.606496847345	3
0	29891	12.615032847345	2
0	29931	12.624030191985	3
0	29939	12.632566191985	2
0	29986	12.649859536625	3
0	29993	12.658395536625	2
0	30002	12.658495536625	3
0	30013	12.667031536625	2
0	30049	12.675868881265	3
0	30060	12.684404881265	2
0	30069	12.684444881265	3
0	30076	12.692980881265	2
0	30127	12.710654225905	3
0	30134	12.719190225905	2
0	30166	12.728327570545	3
0	30173	12.736863570545	2
0	30224	12.754216915185	3
0	30231	12.762752915185	2
0	30240	12.763012915185	3
0	30247	12.771548915185	2
0	30256	12.771748915185	3
0	30263	12.780284915185	2
0	30314	12.797878259825	3
0	30321	12.806414259825	2
0	30357	12.815171604465	3
0	30364	12.823707604465	2
0	30392	12.832584949105	3
0	30415	12.841120949105	2
0	30424	12.841300949105	3
0	30435	12.849836949105	2
0	30475	12.858494293745	3
0	30491	12.867030293745	2
0	30497	12.867130293745	3
0	30504	12.875666293745	2
0	30537	12.884603638385	3
0	30544	12.893139638385	2
0	30545	12.893139638385	3
0	30568	12.901675638385	2
0	30669	12.936300983025	3
0	30680	12.944836983025	2
0	30716	12.953994327665	3
0	30723	12.962530327665	2
0	30759	12.971267672305	3
0	30770	12.979803672305	2
0	30779	12.979843672305	3
0	30786	12.988379672305	2
0	30833	13.005653016945	3
0	30840	13.014189016945	2
0	30868	13.023086361585	3
0	30875	13.031622361585	2
0	30884	13.032022361585	3
0	30905	13.040558361585	2
0	30918	13.041179706225	3
0	30929	13.049715706225	2
0	30938	13.049855706225	3
0	30946	13.058391706225	2
0	30955	13.058471706225	3
0	30962	13.067007706225	2
0	30994	13.076165050865	3
0	31013	13.084701050865	2
0	31045	13.093498395505	3
0	31052	13.102034395505	2
0	31099	13.119547740145	3
0	31106	13.128083740145	2
0	31115	13.128103740145	3
0	31130	13.136639740145	2
0	31158	13.145517084785	3
0	31165	13.154053084785	2
0	31174	13.154193084785	3
0	31181	13.162729084785	2
0	31236	13.180402429425	3
0	31247	13.188938429425	2
0	31275	13.197955774065	3
0	31286	13.206491774065	2
0	31341	13.224045118705	3
0	31348	13.232581118705	2
0	31407	13.250234463345	3
0	31418	13.258770463345	2
0	31450	13.267687807985	3
0	31461	13.276223807985	2
0	31470	13.276363807985	3
0	31477	13.284899807985	2
0	31486	13.285019807985	3
0	31493	13.293555807985	2
0	31502	13.293775807985	3
0	31509	13.302311807985	2
0	31560	13.319785152625	3
0	31571	13.328321152625	2
0	31580	13.328361152625	3
0	31593	13.336897152625	2
0	31606	13.337098497265	3
0	31617	13.345634497265	2
0	31646	13.354331841905	3
0	31653	13.362867841905	2
0	31693	13.371945186545	3
0	31700	13.380481186545	2
0	31728	13.389498531185	3
0	31735	13.398034531185	2
0	31763	13.407091875825	3
0	31774	13.415627875825	2
0	31844	13.441837220465	3
0	31855	13.450373220465	2
0	31883	13.459310565105	3
0	31894	13.467846565105	2
0	31903	13.468206565105	3
0	31910	13.476742565105	2
0	31938	13.485579909745	3
0	31945	13.494115909745	2
0	31977	13.503073254385	3
0	31992	13.511609254385	2
0	32051	13.529262599025	3
0	32058	13.537798599025	2
0	32067	13.538198599025	3
0	32078	13.546734599025	2
0	32129	13.564067943665	3
0	32140	13.572603943665	2
0	32149	13.572763943665	3
0	32156	13.581299943665	2
0	32196	13.590437288305	3
0	32203	13.598973288305	2
0	32212	13.599333288305	3
0	32225	13.607869288305	2
0	32238	13.608030632945	3
0	32253	13.616566632945	2
0	32309	13.634219977585	3
0	32320	13.642755977585	2
0	32348	13.651593322225	3
0	32355	13.660129322225	2
0	32364	13.660189322225	3
0	32371	13.668725322225	2
0	32380	13.669125322225	3
0	32399	13.677661322225	2
0	32431	13.686358666865	3
0	32446	13.694894666865	2
0	32493	13.712408011505	3
0	32500	13.720944011505	2
0	32551	13.738297356145	3
0	32562	13.746833356145	2
0	32590	13.755850700785	3
0	32597	13.764386700785	2
0	32606	13.764446700785	3
0	32617	13.772982700785	2
0	32626	13.773022700785	3
0	32637	13.781558700785	2
0	32646	13.781658700785	3
0	32657	13.790194700785	2
0	32685	13.799192045425	3
0	32692	13.807728045425	2
0	32701	13.807788045425	3
0	32714	13.816324045425	2
0	32727	13.816385390065	3
0	32738	13.824921390065	2
0	32794	13.842394734705	3
0	32801	13.850930734705	2
0	32833	13.860068079345	3
0	32840	13.868604079345	2
0	32849	13.868804079345	3
0	32860	13.877340079345	2
0	32953	13.911865423985	3
0	32960	13.920401423985	2
0	32988	13.929178768625	3
0	33003	13.937714768625	2
0	33012	13.937914768625	3
0	33019	13.946450768625	2
0	33028	13.946730768625	3
0	33039	13.955266768625	2
0	33040	13.955266768625	3
0	33055	13.963802768625	2
0	33129	13.989812113265	3
0	33140	13.998348113265	2
0	33199	14.015881457905	3
0	33206	14.024417457905	2
0	33215	14.024557457905	3
0	33226	14.033093457905	2
0	33254	14.042090802545	3
0	33265	14.050626802545	2
0	33293	14.059704147185	3
0	33300	14.068240147185	2
0	33328	14.077277491825	3
0	33343	14.085813491825	2
0	33352	14.085853491825	3
0	33363	14.094389491825	2
0	33391	14.103146836465	3
0	33402	14.111682836465	2
0	33411	14.111762836465	3
0	33422	14.120298836465	2
0	33450	14.129076181105	3
0	33457	14.137612181105	2
0	33508	14.155005525745	3
0	33515	14.163541525745	2
0	33547	14.172698870385	3
0	33562	14.181234870385	2
0	33598	14.189852215025	3
0	33609	14.198388215025	2
0	33641	14.207245559665	3
0	33652	14.215781559665	2
0	33661	14.216121559665	3
0	33672	14.224657559665	2
0	33757	14.259302904305	3
0	33764	14.267838904305	2
0	33773	14.268058904305	3
0	33788	14.276594904305	2
0	33843	14.294268248945	3
0	33854	14.302804248945	2
0	33863	14.302964248945	3
0	33870	14.311500248945	2
0	33921	14.329133593585	3
0	33928	14.337669593585	2
0	33937	14.337849593585	3
0	33944	14.346385593585	2
0	33991	14.363718938225	3
0	34002	14.372254938225	2
0	34034	14.381232282865	3
0	34053	14.389768282865	2
0	34062	14.389968282865	3
0	34073	14.398504282865	2
0	34101	14.407521627505	3
0	34112	14.416057627505	2
0	34163	14.433470972145	3
0	34170	14.442006972145	2
0	34179	14.442026972145	3
0	34186	14.450562972145	2
0	34195	14.450642972145	3
0	34206	14.459178972145	2
0	34257	14.476792316785	3
0	34264	14.485328316785	2
0	34292	14.494245661425	3
0	34299	14.502781661425	2
0	34327	14.511519006065	3
0	34338	14.520055006065	2
0	34385	14.537708350705	3
0	34392	14.546244350705	2
0	34420	14.555061695345	3
0	34427	14.563597695345	2
0	34436	14.563737695345	3
0	34447	14.572273695345	2
0	34456	14.572353695345	3
0	34471	14.580889695345	2
0	34472	14.580889695345	3
0	34495	14.589425695345	2
0	34527	14.598363039985	3
0	34534	14.606899039985	2
0	34543	14.606919039985	3
0	34550	14.615455039985	2
0	34590	14.624572384625	3
0	34597	14.633108384625	2
0	34648	14.650581729265	3
0	34663	14.659117729265	2
0	34672	14.659497729265	3
0	34679	14.668033729265	2
0	34761	14.694103073905	3
0	34776	14.702639073905	2
0	34804	14.711596418545	3
0	34811	14.720132418545	2
0	34866	14.737405763185	3
0	34873	14.745941763185	2
0	34882	14.745981763185	3
0	34889	14.754517763185	2
0	34890	14.754517763185	3
0	34905	14.763053763185	2
0	34956	14.780587107825	3
0	34971	14.789123107825	2
0	34972	14.789123107825	3
0	34991	14.797659107825	2
0	35000	14.797819107825	3
0	35015	14.806355107825	2
0	35047	14.814952452465	3
0	35054	14.823488452465	2
0	35082	14.832425797105	3
0	35093	14.840961797105	2
0	35125	14.849799141745	3
0	35132	14.858335141745	2
0	35141	14.858615141745	3
0	35148	14.867151141745	2
0	35180	14.876048486385	3
0	35187	14.884584486385	2
0	35196	14.884804486385	3
0	35203	14.893340486385	2
0	35212	14.893360486385	3
0	35219	14.901896486385	2
0	35270	14.919169831025	3
0	35293	14.927705831025	2
0	35302	14.927965831025	3
0	35313	14.936501831025	2
0	35387	14.962451175665	3
0	35394	14.970987175665	2
0	35422	14.979744520305	3
0	35429	14.988280520305	2
0	35438	14.988360520305	3
0	35449	14.996896520305	2
0	35458	14.997096520305	3
0	35471	15.005632520305	2
0	35596	15.048713864945	3
0	35603	15.057249864945	2
0	35631	15.065887209585	3
0	35646	15.074423209585	2
0	35655	15.074903209585	3
0	35662	15.083439209585	2
0	35713	15.100852554225	3
0	35720	15.109388554225	2
0	35748	15.118145898865	3
0	35759	15.126681898865	2
0	35768	15.126901898865	3
0	35779	15.135437898865	2
0	35807	15.144335243505	3
0	35814	15.152871243505	2
0	35846	15.161628588145	3
0	35853	15.170164588145	2
0	35912	15.187837932785	3
0	35923	15.196373932785	2
0	35963	15.205411277425	3
0	35974	15.213947277425	2
0	35983	15.214327277425	3
0	35990	15.222863277425	2
0	36018	15.231440622065	3
0	36025	15.239976622065	2
0	36053	15.248913966705	3
0	36060	15.257449966705	2
0	36096	15.266147311345	3
0	36111	15.274683311345	2
0	36120	15.274843311345	3
0	36127	15.283379311345	2
0	36182	15.301012655985	3
0	36193	15.309548655985	2
0	36225	15.318646000625	3
0	36232	15.327182000625	2
0	36260	15.335799345265	3
0	36275	15.344335345265	2
0	36284	15.344435345265	3
0	36291	15.352971345265	2
0	36319	15.362028689905	3
0	36326	15.370564689905	2
0	36427	15.405330034545	3
0	36434	15.413866034545	2
0	36466	15.422923379185	3
0	36473	15.431459379185	2
0	36501	15.440356723825	3
0	36508	15.448892723825	2
0	36536	15.457710068465	3
0	36551	15.466246068465	2
0	36583	15.475083413105	3
0	36590	15.483619413105	2
0	36618	15.492296757745	3
0	36629	15.500832757745	2
0	36638	15.501072757745	3
0	36649	15.509608757745	2
0	36658	15.509628757745	3
0	36669	15.518164757745	2
0	36697	15.526802102385	3
0	36708	15.535338102385	2
0	36717	15.535718102385	3
0	36728	15.544254102385	2
0	36775	15.561947447025	3
0	36782	15.570483447025	2
0	36791	15.570503447025	3
0	36802	15.579039447025	2
0	36834	15.587736791665	3
0	36849	15.596272791665	2
0	36850	15.596272791665	3
0	36869	15.604808791665	2
0	36901	15.613786136305	3
0	36912	15.622322136305	2
0	36921	15.622382136305	3
0	36932	15.630918136305	2
0	36941	15.630978136305	3
0	36952	15.639514136305	2
0	37030	15.665663480945	3
0	37037	15.674199480945	2
0	37046	15.674279480945	3
0	37053	15.682815480945	2
0	37081	15.691932825585	3
0	37096	15.700468825585	2
0	37128	15.709306170225	3
0	37139	15.717842170225	2
0	37171	15.726859514865	3
0	37191	15.735395514865	2
0	37240	15.753028859505	3
0	37247	15.761564859505	2
0	37256	15.761944859505	3
0	37263	15.770480859505	2
0	37272	15.770500859505	3
0	37287	15.779036859505	2
0	37319	15.787734204145	3
0	37326	15.796270204145	2
0	37335	15.796490204145	3
0	37342	15.805026204145	2
0	37405	15.822539548785	3
0	37421	15.831075548785	2
0	37446	15.840232893425	3
0	37458	15.848768893425	2
0	37467	15.848828893425	3
0	37474	15.857364893425	2
0	37483	15.857504893425	3
0	37490	15.866040893425	2
0	37499	15.866400893425	3
0	37512	15.874936893425	2
0	37548	15.883934238065	3
0	37556	15.892470238065	2
0	37584	15.901387582705	3
0	37591	15.909923582705	2
0	37631	15.918940927345	3
0	37642	15.927476927345	2
0	37651	15.927496927345	3
0	37658	15.936032927345	2
0	37690	15.944770271985	3
0	37701	15.953306271985	2
0	37710	15.953606271985	3
0	37723	15.962142271985	2
0	37736	15.962303616625	3
0	37743	15.970839616625	2
0	37772	15.979556961265	3
0	37779	15.988092961265	2
0	37807	15.997210305905	3
0	37814	16.005746305905	2
0	37865	16.023259650545	3
0	37872	16.031795650545	2
0	37881	16.032135650545	3
0	37892	16.040671650545	2
0	37901	16.040791650545	3
0	37912	16.049327650545	2
0	37967	16.066660995185	3
0	37974	16.075196995185	2
0	38002	16.084054339825	3
0	38009	16.092590339825	2
0	38087	16.118799684465	3
0	38103	16.127335684465	2
0	38109	16.127495684465	3
0	38116	16.136031684465	2
0	38145	16.144869029105	3
0	38152	16.153405029105	2
0	38153	16.153405029105	3
0	38172	16.161941029105	2
0	38181	16.162061029105	3
0	38192	16.170597029105	2
0	38228	16.179654373745	3
0	38235	16.188190373745	2
0	38294	16.205663718385	3
0	38310	16.214199718385	2
0	38316	16.214439718385	3
0	38327	16.222975718385	2
0	38360	16.231673063025	3
0	38375	16.240209063025	2
0	38407	16.249366407665	3
0	38422	16.257902407665	2
0	38431	16.258102407665	3
0	38438	16.266638407665	2
0	38508	16.292647752305	3
0	38519	16.301183752305	2
0	38551	16.310261096945	3
0	38558	16.318797096945	2
0	38567	16.318937096945	3
0	38574	16.327473096945	2
0	38583	16.327773096945	3
0	38590	16.336309096945	2
0	38637	16.353862441585	3
0	38648	16.362398441585	2
0	38688	16.371335786225	3
0	38703	16.379871786225	2
0	38731	16.388969130865	3
0	38746	16.397505130865	2
0	38774	16.406502475505	3
0	38781	16.415038475505	2
0	38809	16.424135820145	3
0	38820	16.432671820145	2
0	38848	16.441509164785	3
0	38863	16.450045164785	2
0	38891	16.459062509425	3
0	38898	16.467598509425	2
0	38907	16.467818509425	3
0	38914	16.476354509425	2
0	38961	16.493667854065	3
0	38972	16.502203854065	2
0	39031	16.519897198705	3
0	39038	16.528433198705	2
0	39066	16.537490543345	3
0	39073	16.546026543345	2
0	39101	16.554863887985	3
0	39108	16.563399887985	2
0	39117	16.563519887985	3
0	39132	16.572055887985	2
0	39141	16.572275887985	3
0	39152	16.580811887985	2
0	39203	16.598385232625	3
0	39214	16.606921232625	2
0	39215	16.606921232625	3
0	39242	16.615457232625	2
0	39289	16.632890577265	3
0	39304	16.641426577265	2
0	39313	16.641466577265	3
0	39326	16.650002577265	2
0	39358	16.658699921905	3
0	39370	16.667235921905	2
0	39379	16.667315921905	3
0	39386	16.675851921905	2
0	39414	16.684589266545	3
0	39421	16.693125266545	2
0	39430	16.693185266545	3
0	39441	16.701721266545	2
0	39450	16.701981266545	3
0	39457	16.710517266545	2
0	39466	16.710577266545	3
0	39473	16.719113266545	2
0	39547	16.745242611185	3
0	39554	16.753778611185	2
0	39563	16.753838611185	3
0	39570	16.762374611185	2
0	39579	16.762434611185	3
0	39590	16.770970611185	2
0	39622	16.779867955825	3
0	39633	16.788403955825	2
0	39692	16.805737300465	3
0	39699	16.814273300465	2
0	39708	16.814673300465	3
0	39715	16.823209300465	2
0	39781	16.849038645105	3
0	39788	16.857574645105	2
0	39797	16.857674645105	3
0	39808	16.866210645105	2
0	39817	16.866350645105	3
0	39824	16.874886645105	2
0	39875	16.892539989745	3
0	39882	16.901075989745	2
0	39910	16.910233334385	3
0	39917	16.918769334385	2
0	39926	16.918809334385	3
0	39933	16.927345334385	2
0	39942	16.927525334385	3
0	39949	16.936061334385	2
0	40046	16.970786679025	3
0	40053	16.979322679025	2
0	40089	16.988380023665	3
0	40100	16.996916023665	2
0	40109	16.996936023665	3
0	40124	17.005472023665	2
0	40133	17.005732023665	3
0	40144	17.014268023665	2
0	40176	17.023005368305	3
0	40187	17.031541368305	2
0	40196	17.031781368305	3
0	40207	17.040317368305	2
0	40216	17.040437368305	3
0	40231	17.048973368305	2
0	40267	17.057610712945	3
0	40282	17.066146712945	2
0	40291	17.066306712945	3
0	40302	17.074842712945	2
0	40338	17.083620057585	3
0	40345	17.092156057585	2
0	40377	17.101153402225	3
0	40384	17.109689402225	2
0	40393	17.110069402225	3
0	40400	17.118605402225	2
0	40432	17.127342746865	3
0	40439	17.135878746865	2
0	40471	17.144976091505	3
0	40478	17.153512091505	2
0	40487	17.153532091505	3
0	40494	17.162068091505	2
0	40495	17.162068091505	3
0	40514	17.170604091505	2
0	40523	17.170724091505	3
0	40538	17.179260091505	2
0	40570	17.187917436145	3
0	40577	17.196453436145	2
0	40613	17.205230780785	3
0	40632	17.213766780785	2
0	40691	17.231440125425	3
0	40702	17.239976125425	2
0	40730	17.248953470065	3
0	40737	17.257489470065	2
0	40773	17.266166814705	3
0	40788	17.274702814705	2
0	40816	17.283700159345	3
0	40823	17.292236159345	2
0	40832	17.292476159345	3
0	40849	17.301012159345	2
0	40866	17.301453503985	3
0	40890	17.309989503985	2
0	40944	17.327642848625	3
0	40955	17.336178848625	2
0	40964	17.336438848625	3
0	40971	17.344974848625	2
0	40980	17.345254848625	3
0	40987	17.353790848625	2
0	41042	17.371204193265	3
0	41049	17.379740193265	2
0	41058	17.380160193265	3
0	41065	17.388696193265	2
0	41074	17.388736193265	3
0	41081	17.397272193265	2
0	41113	17.406069537905	3
0	41124	17.414605537905	2
0	41175	17.432298882545	3
0	41186	17.440834882545	2
0	41195	17.440914882545	3
0	41202	17.449450882545	2
0	41230	17.458088227185	3
0	41241	17.466624227185	2
0	41277	17.475581571825	3
0	41292	17.484117571825	2
0	41301	17.484177571825	3
0	41308	17.492713571825	2
0	41371	17.510306916465	3
0	41378	17.518842916465	2
0	41429	17.536356261105	3
0	41440	17.544892261105	2
0	41476	17.553569605745	3
0	41487	17.562105605745	2
0	41523	17.570902950385	3
0	41534	17.579438950385	2
0	41566	17.588396295025	3
0	41581	17.596932295025	2
0	41613	17.605969639665	3
0	41624	17.614505639665	2
0	41656	17.623382984305	3
0	41667	17.631918984305	2
0	41676	17.632038984305	3
0	41683	17.640574984305	2
0	41711	17.649372328945	3
0	41718	17.657908328945	2
0	41750	17.667005673585	3
0	41757	17.675541673585	2
0	41766	17.675661673585	3
0	41773	17.684197673585	2
0	41805	17.693035018225	3
0	41812	17.701571018225	2
0	41821	17.701691018225	3
0	41832	17.710227018225	2
0	41860	17.719164362865	3
0	41871	17.727700362865	2
0	41872	17.727700362865	3
0	41887	17.736236362865	2
0	41896	17.736296362865	3
0	41911	17.744832362865	2
0	41943	17.753509707505	3
0	41950	17.762045707505	2
0	41982	17.771083052145	3
0	41989	17.779619052145	2
0	42025	17.788316396785	3
0	42040	17.796852396785	2
0	42072	17.805749741425	3
0	42083	17.814285741425	2
0	42119	17.823203086065	3
0	42126	17.831739086065	2
0	42162	17.840796430705	3
0	42173	17.849332430705	2
0	42182	17.849412430705	3
0	42197	17.857948430705	2
0	42229	17.866825775345	3
0	42236	17.875361775345	2
0	42287	17.892755119985	3
0	42298	17.901291119985	2
0	42307	17.901391119985	3
0	42314	17.909927119985	2
0	42392	17.936116464625	3
0	42403	17.944652464625	2
0	42412	17.944892464625	3
0	42423	17.953428464625	2
0	42474	17.970861809265	3
0	42494	17.979397809265	2
0	42519	17.988155153905	3
0	42527	17.996691153905	2
0	42597	18.022800498545	3
0	42612	18.031336498545	2
0	42621	18.031636498545	3
0	42634	18.040172498545	2
0	42646	18.040173843185	3
0	42654	18.048709843185	2
0	42683	18.057547187825	3
0	42690	18.066083187825	2
0	42745	18.083416532465	3
0	42752	18.091952532465	2
0	42761	18.091992532465	3
0	42776	18.100528532465	2
0	42827	18.117801877105	3
0	42834	18.126337877105	2
0	42889	18.143931221745	3
0	42900	18.152467221745	2
0	42932	18.161564566385	3
0	42943	18.170100566385	2
0	42971	18.178977911025	3
0	42978	18.187513911025	2
0	43010	18.196451255665	3
0	43021	18.204987255665	2
0	43030	18.205387255665	3
0	43037	18.213923255665	2
0	43065	18.222680600305	3
0	43072	18.231216600305	2
0	43150	18.257245944945	3
0	43157	18.265781944945	2
0	43166	18.266161944945	3
0	43173	18.274697944945	2
0	43201	18.283335289585	3
0	43216	18.291871289585	2
0	43244	18.300768634225	3
0	43251	18.309304634225	2
0	43260	18.309484634225	3
0	43267	18.318020634225	2
0	43314	18.335513978865	3
0	43325	18.344049978865	2
0	43376	18.361723323505	3
0	43387	18.370259323505	2
0	43434	18.387832668145	3
0	43441	18.396368668145	2
0	43477	18.405306012785	3
0	43488	18.413842012785	2
0	43524	18.422899357425	3
0	43539	18.431435357425	2
0	43548	18.431695357425	3
0	43559	18.440231357425	2
0	43610	18.457804702065	3
0	43621	18.466340702065	2
0	43676	18.483634046705	3
0	43683	18.492170046705	2
0	43738	18.509463391345	3
0	43745	18.517999391345	2
0	43754	18.518159391345	3
0	43765	18.526695391345	2
0	43816	18.544228735985	3
0	43827	18.552764735985	2
0	43886	18.570358080625	3
0	43901	18.578894080625	2
0	43902	18.578894080625	3
0	43929	18.587430080625	2
0	43938	18.587450080625	3
0	43949	18.595986080625	2
0	43958	18.596466080625	3
0	43965	18.605002080625	2
0	44012	18.622675425265	3
0	44019	18.631211425265	2
0	44108	18.665816769905	3
0	44115	18.674352769905	2
0	44124	18.674512769905	3
0	44135	18.683048769905	2
0	44163	18.691766114545	3
0	44178	18.700302114545	2
0	44206	18.709339459185	3
0	44217	18.717875459185	2
0	44218	18.717875459185	3
0	44237	18.726411459185	2
0	44273	18.735128803825	3
0	44284	18.743664803825	2
0	44293	18.743804803825	3
0	44310	18.752340803825	2
0	44323	18.752522148465	3
0	44330	18.761058148465	2
0	44359	18.769895493105	3
0	44366	18.778431493105	2
0	44398	18.787568837745	3
0	44409	18.796104837745	2
0	44506	18.830870182385	3
0	44513	18.839406182385	2
0	44522	18.839486182385	3
0	44529	18.848022182385	2
0	44530	18.848022182385	3
0	44549	18.856558182385	2
0	44619	18.882687527025	3
0	44634	18.891223527025	2
0	44662	18.900220871665	3
0	44669	18.908756871665	2
0	44678	18.908936871665	3
0	44685	18.917472871665	2
0	44721	18.926250216305	3
0	44732	18.934786216305	2
0	44768	18.943643560945	3
0	44775	18.952179560945	2
0	44807	18.960936905585	3
0	44818	18.969472905585	2
0	44869	18.986766250225	3
0	44880	18.995302250225	2
0	44889	18.995342250225	3
0	44896	19.003878250225	2
0	44924	19.012615594865	3
0	44931	19.021151594865	2
0	44940	19.021351594865	3
0	44953	19.029887594865	2
0	44989	19.038984939505	3
0	44997	19.047520939505	2
0	45006	19.047660939505	3
0	45013	19.056196939505	2
0	45041	19.064994284145	3
0	45052	19.073530284145	2
0	45061	19.073770284145	3
0	45076	19.082306284145	2
0	45077	19.082306284145	3
0	45108	19.090842284145	2
0	45136	19.099759628785	3
0	45143	19.108295628785	2
0	45152	19.108555628785	3
0	45163	19.117091628785	2
0	45172	19.117151628785	3
0	45183	19.125687628785	2
0	45211	19.134824973425	3
0	45218	19.143360973425	2
0	45289	19.160834318065	3
0	45296	19.169370318065	2
0	45328	19.178207662705	3
0	45339	19.186743662705	2
0	45348	19.186863662705	3
0	45359	19.195399662705	2
0	45391	19.204057007345	3
0	45402	19.212593007345	2
0	45430	19.221550351985	3
0	45441	19.230086351985	2
0	45488	19.247219696625	3
0	45495	19.255755696625	2
0	45504	19.256175696625	3
0	45515	19.264711696625	2
0	45555	19.273549041265	3
0	45566	19.282085041265	2
0	45575	19.282185041265	3
0	45586	19.290721041265	2
0	45618	19.299698385905	3
0	45625	19.308234385905	2
0	45661	19.317031730545	3
0	45677	19.325567730545	2
0	45710	19.334585075185	3
0	45722	19.343121075185	2
0	45750	19.352058419825	3
0	45765	19.360594419825	2
0	45793	19.369391764465	3
0	45800	19.377927764465	2
0	45809	19.378227764465	3
0	45816	19.386763764465	2
0	45825	19.386783764465	3
0	45832	19.395319764465	2
0	45864	19.404337109105	3
0	45871	19.412873109105	2
0	45918	19.430526453745	3
0	45933	19.439062453745	2
0	45965	19.447779798385	3
0	45972	19.456315798385	2
0	45981	19.456595798385	3
0	45996	19.465131798385	2
0	46032	19.473929143025	3
0	46047	19.482465143025	2
0	46094	19.500098487665	3
0	46101	19.508634487665	2
0	46110	19.508734487665	3
0	46117	19.517270487665	2
0	46126	19.517290487665	3
0	46133	19.525826487665	2
0	46161	19.534703832305	3
0	46168	19.543239832305	2
0	46177	19.543279832305	3
0	46184	19.551815832305	2
0	46193	19.552215832305	3
0	46210	19.560751832305	2
0	46258	19.569789176945	3
0	46266	19.578325176945	2
0	46294	19.587282521585	3
0	46309	19.595818521585	2
0	46337	19.604475866225	3
0	46348	19.613011866225	2
0	46376	19.622049210865	3
0	46383	19.630585210865	2
0	46419	19.639482555505	3
0	46430	19.648018555505	2
0	46481	19.665511900145	3
0	46488	19.674047900145	2
0	46528	19.683005244785	3
0	46539	19.691541244785	2
0	46594	19.708794589425	3
0	46605	19.717330589425	2
0	46633	19.726227934065	3
0	46640	19.734763934065	2
0	46668	19.743641278705	3
0	46675	19.752177278705	2
0	46684	19.752377278705	3
0	46691	19.760913278705	2
0	46700	19.761133278705	3
0	46711	19.769669278705	2
0	46720	19.769689278705	3
0	46735	19.778225278705	2
0	46767	19.786882623345	3
0	46791	19.795418623345	2
0	46797	19.795578623345	3
0	46804	19.804114623345	2
0	46813	19.804254623345	3
0	46829	19.812790623345	2
0	46880	19.830383967985	3
0	46887	19.838919967985	2
0	46896	19.839199967985	3
0	46903	19.847735967985	2
0	46950	19.865189312625	3
0	46957	19.873725312625	2
0	46970	19.874205312625	3
0	46981	19.882741312625	2
0	46982	19.882741312625	3
0	46997	19.891277312625	2
0	47029	19.900214657265	3
0	47040	19.908750657265	2
0	47049	19.908830657265	3
0	47056	19.917366657265	2
0	47084	19.926264001905	3
0	47091	19.934800001905	2
0	47100	19.934840001905	3
0	47107	19.943376001905	2
0	47139	19.952533346545	3
0	47146	19.961069346545	2
0	47193	19.978422691185	3
0	47200	19.986958691185	2
0	47232	19.996116035825	3
1	0	0	0
1	0	0	0
1	0	0	2
2	0	0	0
2	0	0	0
2	0	0	2
2	43	0.040367922865	3
2	54	0.048903922865	2
2	114	0.066317267505	3
2	121	0.074853267505	2
2	133	0.075153267505	3
2	144	0.083689267505	2
2	188	0.101122612145	3
2	199	0.109658612145	2
2	231	0.118775956785	3
2	242	0.127311956785	2
2	254	0.127331956785	3
2	261	0.135867956785	2
2	309	0.153121301425	3
2	316	0.161657301425	2
2	328	0.161857301425	3
2	335	0.170393301425	2
2	371	0.179330646065	3
2	378	0.187866646065	2
2	430	0.205399990705	3
2	441	0.213935990705	2
2	453	0.214095990705	3
2	464	0.222631990705	2
2	516	0.240005335345	3
2	523	0.248541335345	2
2	535	0.248561335345	3
2	550	0.257097335345	2
2	562	0.257157335345	3
2	569	0.265693335345	2
2	629	0.292082679985	3
2	648	0.300618679985	2
2	687	0.309396024625	3
2	705	0.317932024625	2
2	714	0.318232024625	3
2	729	0.326768024625	2
2	762	0.335705369265	3
2	777	0.344241369265	2
2	809	0.353078713905	3
2	824	0.361614713905	2
2	836	0.361674713905	3
2	847	0.370210713905	2
2	883	0.379108058545	3
2	890	0.387644058545	2
2	922	0.396521403185	3
2	929	0.405057403185	2
2	973	0.422850747825	3
2	984	0.431386747825	2
2	1044	0.448880092465	3
2	1055	0.457416092465	2
2	1067	0.457456092465	3
2	1074	0.465992092465	2
2	1106	0.475129437105	3
2	1113	0.483665437105	2
2	1125	0.483725437105	3
2	1132	0.492261437105	2
2	1184	0.509974781745	3
2	1199	0.518510781745	2
2	1211	0.518590781745	3
2	1222	0.527126781745	2
2	1258	0.536104126385	3
2	1265	0.544640126385	2
2	1329	0.570689471025	3
2	1340	0.579225471025	2
2	1388	0.596778815665	3
2	1395	0.605314815665	2
2	1447	0.622868160305	3
2	1454	0.631404160305	2
2	1490	0.640201504945	3
2	1501	0.648737504945	2
2	1513	0.648777504945	3
2	1520	0.657313504945	2
2	1532	0.657793504945	3
2	1539	0.666329504945	2
2	1571	0.675266849585	3
2	1578	0.683802849585	2
2	1622	0.701156194225	3
2	1633	0.709692194225	2
2	1661	0.718449538865	3
2	1672	0.726985538865	2
2	1700	0.736022883505	3
2	1711	0.744558883505	2
2	1739	0.753416228145	3
2	1746	0.761952228145	2
2	1778	0.771069572785	3
2	1785	0.779605572785	2
2	1813	0.788462917425	3
2	1820	0.796998917425	2
2	1848	0.806036262065	3
2	1859	0.814572262065	2
2	1871	0.814952262065	3
2	1884	0.823488262065	2
2	1950	0.849257606705	3
2	1961	0.857793606705	2
2	1997	0.866950951345	3
2	2008	0.875486951345	2
2	2052	0.884184295985	3
2	2059	0.892720295985	2
2	2075	0.893160295985	3
2	2082	0.901696295985	2
2	2110	0.910813640625	3
2	2117	0.919349640625	2
2	2145	0.927946985265	3
2	2156	0.936482985265	2
2	2172	0.936682985265	3
2	2183	0.945218985265	2
2	2211	0.954356329905	3
2	2218	0.962892329905	2
2	2230	0.962992329905	3
2	2241	0.971528329905	2
2	2242	0.971528329905	3
2	2264	0.980064329905	2
2	2292	0.988821674545	3
2	2299	0.997357674545	2
2	2327	1.006315019185	3
2	2342	1.014851019185	2
2	2370	1.023648363825	3
2	2377	1.032184363825	2
2	2409	1.041301708465	3
2	2420	1.049837708465	2
2	2464	1.067351053105	3
2	2483	1.075887053105	2
2	2495	1.076067053105	3
2	2502	1.084603053105	2
2	2530	1.093320397745	3
2	2537	1.101856397745	2
2	2601	1.128385742385	3
2	2608	1.136921742385	2
2	2620	1.137101742385	3
2	2631	1.145637742385	2
2	2643	1.145897742385	3
2	2664	1.154433742385	2
2	2693	1.163031087025	3
2	2705	1.171567087025	2
2	2739	1.180304431665	3
2	2752	1.188840431665	2
2	2800	1.206593776305	3
2	2811	1.215129776305	2
2	2863	1.232783120945	3
2	2870	1.241319120945	2
2	2906	1.250016465585	3
2	2913	1.258552465585	2
2	2941	1.267229810225	3
2	2948	1.275765810225	2
2	2960	1.275825810225	3
2	2971	1.284361810225	2
2	3003	1.293479154865	3
2	3010	1.302015154865	2
2	3038	1.310892499505	3
2	3045	1.319428499505	2
2	3057	1.319828499505	3
2	3070	1.328364499505	2
2	3124	1.346437844145	3
2	3131	1.354973844145	2
2	3143	1.355013844145	3
2	3150	1.363549844145	2
2	3210	1.381203188785	3
2	3221	1.389739188785	2
2	3249	1.398496533425	3
2	3256	1.407032533425	2
2	3284	1.415909878065	3
2	3291	1.424445878065	2
2	3363	1.450635222705	3
2	3374	1.459171222705	2
2	3386	1.459351222705	3
2	3393	1.467887222705	2
2	3461	1.494016567345	3
2	3468	1.502552567345	2
2	3480	1.503032567345	3
2	3491	1.511568567345	2
2	3503	1.511628567345	3
2	3510	1.520164567345	2
2	3558	1.537617911985	3
2	3569	1.546153911985	2
2	3601	1.555151256625	3
2	3608	1.563687256625	2
2	3636	1.572364601265	3
2	3647	1.580900601265	2
2	3659	1.581240601265	3
2	3666	1.589776601265	2
2	3697	1.598793945905	3
2	3715	1.607329945905	2
2	3724	1.607549945905	3
2	3735	1.616085945905	2
2	3736	1.616085945905	3
2	3755	1.624621945905	2
2	3799	1.642315290545	3
2	3810	1.650851290545	2
2	3822	1.651211290545	3
2	3839	1.659747290545	2
2	3876	1.668604635185	3
2	3892	1.677140635185	2
2	3924	1.686077979825	3
2	3939	1.694613979825	2
2	3995	1.712167324465	3
2	4006	1.720703324465	2
2	4038	1.729620669105	3
2	4049	1.738156669105	2
2	4081	1.747254013745	3
2	4088	1.755790013745	2
2	4136	1.773323358385	3
2	4143	1.781859358385	2
2	4171	1.790716703025	3
2	4182	1.799252703025	2
2	4194	1.799772703025	3
2	4209	1.808308703025	2
2	4252	1.817046047665	3
2	4266	1.825582047665	2
2	4275	1.825742047665	3
2	4282	1.834278047665	2
2	4331	1.851931392305	3
2	4338	1.860467392305	2
2	4366	1.869484736945	3
2	4373	1.878020736945	2
2	4421	1.895594081585	3
2	4428	1.904130081585	2
2	4456	1.912807426225	3
2	4463	1.921343426225	2
2	4511	1.938916770865	3
2	4522	1.947452770865	2
2	4550	1.956450115505	3
2	4557	1.964986115505	2
2	4569	1.965066115505	3
2	4576	1.973602115505	2
2	4588	1.973682115505	3
2	4599	1.982218115505	2
2	4627	1.991215460145	3
2	4642	1.999751460145	2
2	4654	1.999851460145	3
2	4661	2.008387460145	2
2	4689	2.017664804785	3
2	4700	2.026200804785	2
2	4744	2.043694149425	3
2	4751	2.052230149425	2
2	4799	2.069763494065	3
2	4818	2.078299494065	2
2	4850	2.087316838705	3
2	4857	2.095852838705	2
2	4889	2.104810183345	3
2	4900	2.113346183345	2
2	4960	2.139355527985	3
2	4967	2.147891527985	2
2	4995	2.156748872625	3
2	5006	2.165284872625	2
2	5018	2.165444872625	3
2	5025	2.173980872625	2
2	5081	2.191654217265	3
2	5092	2.200190217265	2
2	5104	2.200250217265	3
2	5111	2.208786217265	2
2	5123	2.209166217265	3
2	5130	2.217702217265	2
2	5165	2.226479561905	3
2	5179	2.235015561905	2
2	5208	2.243592906545	3
2	5228	2.252128906545	2
2	5300	2.278218251185	3
2	5311	2.286754251185	2
2	5387	2.312923595825	3
2	5398	2.321459595825	2
2	5433	2.330156940465	3
2	5455	2.338692940465	2
2	5464	2.338752940465	3
2	5471	2.347288940465	2
2	5560	2.381834285105	3
2	5575	2.390370285105	2
2	5587	2.390530285105	3
2	5594	2.399066285105	2
2	5622	2.407823629745	3
2	5633	2.416359629745	2
2	5668	2.425276974385	3
2	5686	2.433812974385	2
2	5744	2.451426319025	3
2	5755	2.459962319025	2
2	5767	2.460222319025	3
2	5782	2.468758319025	2
2	5850	2.486371663665	3
2	5857	2.494907663665	2
2	5869	2.495167663665	3
2	5880	2.503703663665	2
2	5944	2.529773008305	3
2	5951	2.538309008305	2
2	5999	2.555902352945	3
2	6006	2.564438352945	2
2	6018	2.564478352945	3
2	6029	2.573014352945	2
2	6041	2.573134352945	3
2	6052	2.581670352945	2
2	6083	2.590787697585	3
2	6105	2.599323697585	2
2	6114	2.599523697585	3
2	6125	2.608059697585	2
2	6186	2.634269042225	3
2	6197	2.642805042225	2
2	6209	2.642985042225	3
2	6216	2.651521042225	2
2	6244	2.660178386865	3
2	6255	2.668714386865	2
2	6267	2.668854386865	3
2	6278	2.677390386865	2
2	6290	2.677570386865	3
2	6297	2.686106386865	2
2	6325	2.694683731505	3
2	6344	2.703219731505	2
2	6380	2.712377076145	3
2	6391	2.720913076145	2
2	6403	2.721153076145	3
2	6410	2.729689076145	2
2	6411	2.729689076145	3
2	6441	2.738225076145	2
2	6477	2.746962420785	3
2	6488	2.755498420785	2
2	6500	2.755598420785	3
2	6515	2.764134420785	2
2	6559	2.781767765425	3
2	6566	2.790303765425	2
2	6622	2.807597110065	3
2	6629	2.816133110065	2
2	6641	2.816173110065	3
2	6652	2.824709110065	2
2	6688	2.833366454705	3
2	6699	2.841902454705	2
2	6746	2.850699799345	3
2	6760	2.859235799345	2
2	6797	2.868373143985	3
2	6805	2.876909143985	2
2	6869	2.902978488625	3
2	6876	2.911514488625	2
2	6904	2.920291833265	3
2	6911	2.928827833265	2
2	6923	2.929027833265	3
2	6930	2.937563833265	2
2	7002	2.963713177905	3
2	7013	2.972249177905	2
2	7025	2.972449177905	3
2	7032	2.980985177905	2
2	7060	2.989882522545	3
2	7071	2.998418522545	2
2	7083	2.998478522545	3
2	7094	3.007014522545	2
2	7106	3.007374522545	3
2	7117	3.015910522545	2
2	7149	3.024527867185	3
2	7168	3.033063867185	2
2	7180	3.033583867185	3
2	7195	3.042119867185	2
2	7227	3.051017211825	3
2	7234	3.059553211825	2
2	7262	3.068230556465	3
2	7277	3.076766556465	2
2	7309	3.085923901105	3
2	7316	3.094459901105	2
2	7328	3.094699901105	3
2	7335	3.103235901105	2
2	7387	3.120749245745	3
2	7394	3.129285245745	2
2	7430	3.138382590385	3
2	7445	3.146918590385	2
2	7493	3.164431935025	3
2	7508	3.172967935025	2
2	7552	3.190441279665	3
2	7563	3.198977279665	2
2	7595	3.207894624305	3
2	7606	3.216430624305	2
2	7638	3.225547968945	3
2	7645	3.234083968945	2
2	7657	3.234283968945	3
2	7674	3.242819968945	2
2	7687	3.243141313585	3
[...]
29	37851	16.014703650545	977
29	37864	16.023239650545	978
29	37947	16.057924995185	980
29	37966	16.066560995185	981
29	38001	16.083954339825	982
29	38040	16.101287684465	983
29	38059	16.109943684465	984
29	38082	16.118719684465	985
29	38144	16.144589029105	987
29	38227	16.179294373745	989
29	38270	16.196967718385	990
29	38289	16.205643718385	991
29	38359	16.231593063025	993
29	38406	16.249246407665	995
29	38465	16.275255752305	996
29	38488	16.283911752305	997
29	38507	16.292487752305	998
29	38550	16.310021096945	999
29	38617	16.345026441585	1000
29	38636	16.353842441585	1001
29	38683	16.371115786225	1002
29	38730	16.388749130865	1003
29	38773	16.406362475505	1004
29	38808	16.423695820145	1005
29	38847	16.441269164785	1006
29	38890	16.458882509425	1007
29	38941	16.484991854065	1008
29	38960	16.493567854065	1009
29	39007	16.511061198705	1010
29	39030	16.519717198705	1011
29	39065	16.537330543345	1012
29	39100	16.554803887985	1013
29	39179	16.589369232625	1014
29	39202	16.598025232625	1015
29	39269	16.624014577265	1016
29	39288	16.632650577265	1017
29	39357	16.658599921905	1019
29	39413	16.684449266545	1021
29	39500	16.727710611185	1022
29	39523	16.736306611185	1023
29	39546	16.744942611185	1024
29	39621	16.779627955825	1025
29	39672	16.797021300465	1026
29	39691	16.805717300465	1027
29	39742	16.831766645105	1028
29	39761	16.840322645105	1029
29	39780	16.848978645105	1030
29	39851	16.883683989745	1031
29	39874	16.892299989745	1032
29	39909	16.909933334385	1033
29	39982	16.944618679025	1034
29	40003	16.953154679025	1035
29	40026	16.961770679025	1036
29	40045	16.970726679025	1037
29	40088	16.988340023665	1038
29	40175	17.022945368305	1039
29	40266	17.057530712945	1040
29	40337	17.083500057585	1041
29	40376	17.101073402225	1042
29	40431	17.127182746865	1043
29	40470	17.144876091505	1044
29	40569	17.187817436145	1045
29	40612	17.205210780785	1046
29	40659	17.222604125425	1047
29	40690	17.231320125425	1048
29	40729	17.248693470065	1049
29	40772	17.266086814705	1050
29	40815	17.283560159345	1051
29	40915	17.318966848625	1054
29	40943	17.327622848625	1055
29	41018	17.362348193265	1056
29	41041	17.371104193265	1057
29	41112	17.405869537905	1058
29	41155	17.423242882545	1059
29	41174	17.431898882545	1060
29	41229	17.458028227185	1061
29	41276	17.475241571825	1062
29	41339	17.501410916465	1065
29	41370	17.510286916465	1066
29	41409	17.527540261105	1067
29	41428	17.536296261105	1068
29	41475	17.553469605745	1069
29	41522	17.570662950385	1070
29	41565	17.588156295025	1071
29	41612	17.605689639665	1072
29	41655	17.623082984305	1073
29	41710	17.649252328945	1074
29	41749	17.666805673585	1075
29	41804	17.692955018225	1076
29	41859	17.718784362865	1077
29	41942	17.753409707505	1078
29	41981	17.770983052145	1079
29	42024	17.788276396785	1080
29	42071	17.805629741425	1081
29	42118	17.822923086065	1082
29	42161	17.840396430705	1083
29	42228	17.866565775345	1084
29	42269	17.884139119985	1085
29	42286	17.892675119985	1086
29	42341	17.918844464625	1087
29	42364	17.927420464625	1088
29	42391	17.936096464625	1089
29	42450	17.962085809265	1090
29	42469	17.970821809265	1091
29	42518	17.987995153905	1093
29	42554	18.005248498545	1094
29	42577	18.013964498545	1095
29	42596	18.022700498545	1096
29	42682	18.057267187825	1098
29	42721	18.074640532465	1099
29	42744	18.083376532465	1100
29	42813	18.109125877105	1101
29	42826	18.117661877105	1102
29	42865	18.134955221745	1103
29	42888	18.143691221745	1104
29	42931	18.161064566385	1106
29	42970	18.178737911025	1107
29	43009	18.196431255665	1109
29	43064	18.222520600305	1110
29	43113	18.240033944945	1111
29	43136	18.248569944945	1112
29	43149	18.257105944945	1113
29	43200	18.283295289585	1114
29	43243	18.300468634225	1115
29	43294	18.326597978865	1116
29	43313	18.335273978865	1117
29	43356	18.352947323505	1118
29	43375	18.361503323505	1119
29	43414	18.378836668145	1120
29	43433	18.387632668145	1121
29	43476	18.405046012785	1122
29	43523	18.422619357425	1123
29	43590	18.448828702065	1124
29	43609	18.457544702065	1125
29	43648	18.474938046705	1126
29	43675	18.483614046705	1127
29	43720	18.500787391345	1128
29	43737	18.509323391345	1129
29	43792	18.535552735985	1130
29	43815	18.544148735985	1131
29	43858	18.561742080625	1132
29	43885	18.570338080625	1133
29	43992	18.613559425265	1134
29	44011	18.622515425265	1135
29	44046	18.639928769905	1136
29	44065	18.648524769905	1137
29	44088	18.657080769905	1138
29	44107	18.665656769905	1139
29	44162	18.691726114545	1140
29	44205	18.709279459185	1141
29	44272	18.734968803825	1142
29	44358	18.769635493105	1144
29	44397	18.787268837745	1145
29	44454	18.804782182385	1146
29	44467	18.813318182385	1148
29	44486	18.822194182385	1149
29	44505	18.830850182385	1150
29	44576	18.865235527025	1151
29	44595	18.873971527025	1152
29	44618	18.882647527025	1153
29	44661	18.899760871665	1154
29	44720	18.926050216305	1155
29	44767	18.943423560945	1156
29	44806	18.960836905585	1157
29	44849	18.978130250225	1158
29	44868	18.986686250225	1159
29	44923	19.012575594865	1160
29	44988	19.038624939505	1162
29	45040	19.064894284145	1164
29	45135	19.099559628785	1165
29	45210	19.134304973425	1166
29	45253	19.151958318065	1167
29	45288	19.160774318065	1168
29	45327	19.177927662705	1169
29	45390	19.204017007345	1170
29	45429	19.221190351985	1171
29	45474	19.238663696625	1172
29	45487	19.247199696625	1173
29	45554	19.273389041265	1174
29	45617	19.299498385905	1175
29	45656	19.316951730545	1176
29	45709	19.334425075185	1178
29	45749	19.351918419825	1179
29	45792	19.369251764465	1180
29	45863	19.404017109105	1181
29	45898	19.421630453745	1182
29	45917	19.430226453745	1184
29	45964	19.447679798385	1185
29	46031	19.473709143025	1186
29	46074	19.491102487665	1187
29	46093	19.500058487665	1188
29	46160	19.534543832305	1189
29	46257	19.569509176945	1191
29	46293	19.587022521585	1192
29	46336	19.604395866225	1193
29	46375	19.621709210865	1194
29	46418	19.639322555505	1195
29	46461	19.656655900145	1196
29	46480	19.665471900145	1197
29	46527	19.682985244785	1198
29	46566	19.700158589425	1200
29	46593	19.708714589425	1201
29	46632	19.725927934065	1202
29	46667	19.743501278705	1203
29	46762	19.786782623345	1204
29	46856	19.821347967985	1206
29	46879	19.830323967985	1207
29	46930	19.856413312625	1208
29	46949	19.865089312625	1209
29	47028	19.899854657265	1210
29	47083	19.926004001905	1211
29	47138	19.952053346545	1212
29	47173	19.969686691185	1214
29	47192	19.978362691185	1215
29	47231	19.995656035825	1216
30	210	0.1	240000
30	452	0.2	480000
30	659	0.3	400000
30	940	0.4	480000
30	1210	0.5	480000
30	1406	0.6	320000
30	1644	0.7	480000
30	1870	0.8	480000
30	2093	0.9	320000
30	2353	1	640000
30	2548	1.1	400000
30	2822	1.2	400000
30	3021	1.3	400000
30	3267	1.4	400000
30	3479	1.5	320000
30	3752	1.6	560000
30	4017	1.7	400000
30	4220	1.8	400000
30	4439	1.9	320000
30	4672	2	560000
30	4911	2.1	400000
30	5103	2.2	320000
30	5409	2.3	400000
30	5644	2.4	320000
30	5891	2.5	320000
30	6136	2.6	400000
30	6355	2.7	480000
30	6640	2.8	560000
30	6887	2.9	320000
30	7105	3	480000
30	7346	3.1	560000
30	7617	3.2	400000
30	7846	3.3	480000
30	8056	3.4	480000
30	8286	3.5	400000
30	8569	3.6	240000
30	8768	3.7	400000
30	8989	3.8	320000
30	9248	3.9	400000
30	9495	4	400000
30	9754	4.1	400000
30	9937	4.2	400000
30	10186	4.3	560000
30	10420	4.4	320000
30	10652	4.5	400000
30	10908	4.6	320000
30	11091	4.7	400000
30	11337	4.8	480000
30	11556	4.9	320000
30	11803	5	400000
30	12023	5.1	320000
30	12273	5.2	480000
30	12485	5.3	320000
30	12719	5.4	480000
30	12940	5.5	400000
30	13207	5.6	560000
30	13407	5.7	320000
30	13633	5.8	400000
30	13895	5.9	480000
30	14138	6	320000
30	14380	6.1	400000
30	14590	6.2	480000
30	14863	6.3	560000
30	15153	6.4	400000
30	15377	6.5	320000
30	15596	6.6	400000
30	15829	6.7	480000
30	16071	6.8	480000
30	16317	6.9	480000
30	16558	7	560000
30	16809	7.1	480000
30	17097	7.2	480000
30	17316	7.3	480000
30	17575	7.4	400000
30	17774	7.5	400000
30	18024	7.6	480000
30	18279	7.7	240000
30	18478	7.8	400000
30	18762	7.9	640000
30	18981	8	400000
30	19249	8.1	640000
30	19439	8.2	480000
30	19677	8.3	400000
30	19942	8.4	560000
30	20180	8.5	400000
30	20431	8.6	320000
30	20650	8.7	240000
30	20873	8.8	400000
30	21079	8.9	480000
30	21290	9	400000
30	21528	9.1	480000
30	21804	9.2	400000
30	22034	9.3	480000
30	22244	9.4	480000
30	22490	9.5	400000
30	22763	9.6	560000
30	22958	9.7	400000
30	23188	9.8	400000
30	23432	9.9	320000
30	23652	10	480000
30	23907	10.1	560000
30	24217	10.2	240000
30	24459	10.3	480000
30	24690	10.4	320000
30	24929	10.5	400000
30	25180	10.6	400000
30	25402	10.7	480000
30	25624	10.8	480000
30	25873	10.9	480000
30	26107	11	480000
30	26342	11.1	320000
30	26576	11.2	400000
30	26822	11.3	480000
30	27049	11.4	400000
30	27260	11.5	400000
30	27499	11.6	400000
30	27706	11.7	400000
30	27945	11.8	400000
30	28211	11.9	400000
30	28441	12	480000
30	28663	12.1	480000
30	28918	12.2	400000
30	29164	12.3	480000
30	29437	12.4	560000
30	29674	12.5	560000
30	29930	12.6	400000
30	30107	12.7	320000
30	30356	12.8	560000
30	30599	12.9	320000
30	30832	13	560000
30	31079	13.1	320000
30	31313	13.2	480000
30	31536	13.3	400000
30	31762	13.4	400000
30	31976	13.5	480000
30	32285	13.6	480000
30	32473	13.7	320000
30	32770	13.8	480000
30	32933	13.9	400000
30	33171	14	480000
30	33390	14.1	400000
30	33640	14.2	480000
30	33901	14.3	560000
30	34100	14.4	400000
30	34326	14.5	480000
30	34589	14.6	400000
30	34803	14.7	480000
30	35046	14.8	400000
30	35246	14.9	320000
30	35524	15	480000
30	35712	15.1	560000
30	35962	15.2	480000
30	36181	15.3	400000
30	36426	15.4	560000
30	36696	15.5	480000
30	36900	15.6	320000
30	37127	15.7	400000
30	37369	15.8	400000
30	37583	15.9	320000
30	37851	16	400000
30	38040	16.1	400000
30	38289	16.2	480000
30	38550	16.3	480000
30	38773	16.4	400000
30	39007	16.5	480000
30	39269	16.6	480000
30	39500	16.7	320000
30	39691	16.8	400000
30	39909	16.9	480000
30	40175	17	480000
30	40376	17.1	240000
30	40612	17.2	320000
30	40915	17.3	480000
30	41112	17.4	320000
30	41339	17.5	400000
30	41612	17.6	560000
30	41859	17.7	400000
30	42071	17.8	320000
30	42341	17.9	480000
30	42554	18	480000
30	42813	18.1	480000
30	43064	18.2	560000
30	43243	18.3	400000
30	43476	18.4	560000
30	43720	18.5	480000
30	43992	18.6	480000
30	44205	18.7	560000
30	44454	18.8	320000
30	44720	18.9	640000
30	44923	19	400000
30	45210	19.1	320000
30	45390	19.2	320000
30	45656	19.3	480000
30	45863	19.4	320000
30	46093	19.5	480000
30	46336	19.6	320000
30	46566	19.7	480000
30	46856	19.8	400000
30	47083	19.9	400000
30	47239	20	400000
31	703	0.317931886268	1055
31	1887	0.823488863406	1055
31	2667	1.154434343726	1055
31	3073	1.328365100846	1055
31	3713	1.607329807548	1055
31	3842	1.659747891886	1055
31	4264	1.825581909308	1055
31	5177	2.235015423548	1055
31	5453	2.338692802108	1055
31	5684	2.433812836028	1055
31	6103	2.599323559228	1055
31	6758	2.859235660988	1055
31	7677	3.242820570286	1055
31	8088	3.425526587708	1055
31	8330	3.521427966268	1055
31	8495	3.590740000188	1055
31	8789	3.712831463086	1055
31	9042	3.825945446588	1055
31	9089	3.843598791228	1055
31	10387	4.399731028668	1055
31	11510	4.885832576828	1055
31	13424	5.713217689646	1055
31	13916	5.922172446766	1055
31	14226	6.052037825326	1055
31	14992	6.356231876668	1055
31	15740	6.668543407406	1055
31	16704	7.069139577006	1055
31	16781	7.094888921646	1055
31	16890	7.138551610926	1055
31	17065	7.208284989486	1055
31	18068	7.634812453308	1055
31	18189	7.678995142588	1055
31	19611	8.279155447868	1055
31	20060	8.461143549628	1055
31	20294	8.565360928188	1055
31	20503	8.643628962108	1055
31	20586	8.678495046446	1055
31	21610	9.139847854908	1055
31	21699	9.174493199548	1055
31	21730	9.183389939246	1055
31	22276	9.419033301308	1055
31	22979	9.715756865966	1055
31	23967	10.132846380206	1055
31	24037	10.159094985148	1055
31	24068	10.167791724846	1055
31	24625	10.385463086908	1055
31	25645	10.811829340846	1055
31	26253	11.065230081468	1055
31	26444	11.152776804668	1055
31	28087	11.857567160366	1055
31	29827	12.589024036668	1055
31	29893	12.615033381308	1055
31	30487	12.867030222766	1055
31	30907	13.040558895548	1055
31	31595	13.336897686588	1055
31	32227	13.607869822268	1055
31	32716	13.816324579388	1055
31	35473	15.005633054268	1055
31	37187	15.735395443886	1055
31	37417	15.831075477806	1055
31	37514	15.874937427388	1055
31	37725	15.962142805948	1055
31	38099	16.127335613486	1055
31	38306	16.214199647406	1055
31	39328	16.650003111228	1055
31	40851	17.301012693308	1055
31	40886	17.309989433006	1055
31	42490	17.979397738286	1055
31	42636	18.040173032508	1055
31	44312	18.752341337788	1055
31	44955	19.029888128828	1055
31	45673	19.325567659566	1055
31	46212	19.560752366268	1055
31	46787	19.795418552366	1055
32	709	0.317932625966	1055
32	1888	0.823488863406	1055
32	2668	1.154434343726	1055
32	3074	1.328365100846	1055
32	3719	1.607330547246	1055
32	3843	1.659747891886	1055
32	4270	1.825582649006	1055
32	5183	2.235016163246	1055
32	5459	2.338693541806	1055
32	5690	2.433813575726	1055
32	6109	2.599324298926	1055
32	6764	2.859236400686	1055
32	7678	3.242820570286	1055
32	8094	3.425527327406	1055
32	8336	3.521428705966	1055
32	8501	3.590740739886	1055
32	8790	3.712831463086	1055
32	9048	3.825946186286	1055
32	9095	3.843599530926	1055
32	10393	4.399731768366	1055
32	11516	4.885833316526	1055
32	13425	5.713217689646	1055
32	13917	5.922172446766	1055
32	14227	6.052037825326	1055
32	14998	6.356232616366	1055
32	15741	6.668543407406	1055
32	16705	7.069139577006	1055
32	16782	7.094888921646	1055
32	16891	7.138551610926	1055
32	17066	7.208284989486	1055
32	18074	7.634813193006	1055
32	18195	7.678995882286	1055
32	19617	8.279156187566	1055
32	20066	8.461144289326	1055
32	20300	8.565361667886	1055
32	20509	8.643629701806	1055
32	20587	8.678495046446	1055
32	21616	9.139848594606	1055
32	21705	9.174493939246	1055
32	21731	9.183389939246	1055
32	22282	9.419034041006	1055
32	22980	9.715756865966	1055
32	23968	10.132846380206	1055
32	24043	10.159095724846	1055
32	24069	10.167791724846	1055
32	24631	10.385463826606	1055
32	25646	10.811829340846	1055
32	26259	11.065230821166	1055
32	26450	11.152777544366	1055
32	28088	11.857567160366	1055
32	29833	12.589024776366	1055
32	29899	12.615034121006	1055
32	30488	12.867030222766	1055
32	30913	13.040559635246	1055
32	31601	13.336898426286	1055
32	32233	13.607870561966	1055
32	32722	13.816325319086	1055
32	35479	15.005633793966	1055
32	37188	15.735395443886	1055
32	37418	15.831075477806	1055
32	37520	15.874938167086	1055
32	37731	15.962143545646	1055
32	38100	16.127335613486	1055
32	38307	16.214199647406	1055
32	39334	16.650003850926	1055
32	40857	17.301013433006	1055
32	40887	17.309989433006	1055
32	42491	17.979397738286	1055
32	42642	18.040173772206	1055
32	44318	18.752342077486	1055
32	44961	19.029888868526	1055
32	45674	19.325567659566	1055
32	46218	19.560753105966	1055
32	46788	19.795418552366	1055
33	713	0.317932696945	1055
33	1892	0.823488934385	1055
33	2672	1.154434414705	1055
33	3078	1.328365171825	1055
33	3723	1.607330618225	1055
33	3847	1.659747962865	1055
33	4274	1.825582719985	1055
33	5187	2.235016234225	1055
33	5463	2.338693612785	1055
33	5694	2.433813646705	1055
33	6113	2.599324369905	1055
33	6768	2.859236471665	1055
33	7682	3.242820641265	1055
33	8098	3.425527398385	1055
33	8340	3.521428776945	1055
33	8505	3.590740810865	1055
33	8794	3.712831534065	1055
33	9053	3.825946257265	1055
33	9099	3.843599601905	1055
33	10397	4.399731839345	1055
33	11520	4.885833387505	1055
33	13429	5.713217760625	1055
33	13921	5.922172517745	1055
33	14231	6.052037896305	1055
33	15002	6.356232687345	1055
33	15745	6.668543478385	1055
33	16709	7.069139647985	1055
33	16786	7.094888992625	1055
33	16895	7.138551681905	1055
33	17070	7.208285060465	1055
33	18078	7.634813263985	1055
33	18200	7.678995953265	1055
33	19622	8.279156258545	1055
33	20070	8.461144360305	1055
33	20304	8.565361738865	1055
33	20513	8.643629772785	1055
33	20591	8.678495117425	1055
33	21620	9.139848665585	1055
33	21709	9.174494010225	1055
33	21735	9.183390010225	1055
33	22286	9.419034111985	1055
33	22984	9.715756936945	1055
33	23972	10.132846451185	1055
33	24047	10.159095795825	1055
33	24073	10.167791795825	1055
33	24635	10.385463897585	1055
33	25650	10.811829411825	1055
33	26263	11.065230892145	1055
33	26454	11.152777615345	1055
33	28092	11.857567231345	1055
33	29837	12.589024847345	1055
33	29903	12.615034191985	1055
33	30492	12.867030293745	1055
33	30917	13.040559706225	1055
33	31605	13.336898497265	1055
33	32237	13.607870632945	1055
33	32726	13.816325390065	1055
33	35483	15.005633864945	1055
33	37192	15.735395514865	1055
33	37422	15.831075548785	1055
33	37524	15.874938238065	1055
33	37735	15.962143616625	1055
33	38104	16.127335684465	1055
33	38311	16.214199718385	1055
33	39338	16.650003921905	1055
33	40861	17.301013503985	1055
33	40891	17.309989503985	1055
33	42495	17.979397809265	1055
33	42647	18.040173843185	1055
33	44322	18.752342148465	1055
33	44965	19.029888939505	1055
33	45678	19.325567730545	1055
33	46222	19.560753176945	1055
33	46792	19.795418623345	1055
34	47239	0.1	0
34	47239	0.2	0
34	47239	0.3	0
34	47239	0.4	0
34	47239	0.5	0
34	47239	0.6	0
34	47239	0.7	0
34	47239	0.8	0
34	47239	0.9	0
34	47239	1	0
34	47239	1.1	0
34	47239	1.2	0
34	47239	1.3	0
34	47239	1.4	0
34	47239	1.5	0
34	47239	1.6	0
34	47239	1.7	0
34	47239	1.8	0
34	47239	1.9	0
34	47239	2	0
34	47239	2.1	0
34	47239	2.2	0
34	47239	2.3	0
34	47239	2.4	0
34	47239	2.5	0
34	47239	2.6	0
34	47239	2.7	0
34	47239	2.8	0
34	47239	2.9	0
34	47239	3	0
34	47239	3.1	0
34	47239	3.2	0
34	47239	3.3	0
34	47239	3.4	0
34	47239	3.5	0
34	47239	3.6	0
34	47239	3.7	0
34	47239	3.8	0
34	47239	3.9	0
34	47239	4	0
34	47239	4.1	0
34	47239	4.2	0
34	47239	4.3	0
34	47239	4.4	0
34	47239	4.5	0
34	47239	4.6	0
34	47239	4.7	0
34	47239	4.8	0
34	47239	4.9	0
34	47239	5	0
34	47239	5.1	0
34	47239	5.2	0
34	47239	5.3	0
34	47239	5.4	0
34	47239	5.5	0
34	47239	5.6	0
34	47239	5.7	0
34	47239	5.8	0
34	47239	5.9	0
34	47239	6	0
34	47239	6.1	0
34	47239	6.2	0
34	47239	6.3	0
34	47239	6.4	0
34	47239	6.5	0
34	47239	6.6	0
34	47239	6.7	0
34	47239	6.8	0
34	47239	6.9	0
34	47239	7	0
34	47239	7.1	0
34	47239	7.2	0
34	47239	7.3	0
34	47239	7.4	0
34	47239	7.5	0
34	47239	7.6	0
34	47239	7.7	0
34	47239	7.8	0
34	47239	7.9	0
34	47239	8	0
34	47239	8.1	0
34	47239	8.2	0
34	47239	8.3	0
34	47239	8.4	0
34	47239	8.5	0
34	47239	8.6	0
34	47239	8.7	0
34	47239	8.8	0
34	47239	8.9	0
34	47239	9	0
34	47239	9.1	0
34	47239	9.2	0
34	47239	9.3	0
34	47239	9.4	0
34	47239	9.5	0
34	47239	9.6	0
34	47239	9.7	0
34	47239	9.8	0
34	47239	9.9	0
34	47239	10	0
34	47239	10.1	0
34	47239	10.2	0
34	47239	10.3	0
34	47239	10.4	0
34	47239	10.5	0
34	47239	10.6	0
34	47239	10.7	0
34	47239	10.8	0
34	47239	10.9	0
34	47239	11	0
34	47239	11.1	0
34	47239	11.2	0
34	47239	11.3	0
34	47239	11.4	0
34	47239	11.5	0
34	47239	11.6	0
34	47239	11.7	0
34	47239	11.8	0
34	47239	11.9	0
34	47239	12	0
34	47239	12.1	0
34	47239	12.2	0
34	47239	12.3	0
34	47239	12.4	0
34	47239	12.5	0
34	47239	12.6	0
34	47239	12.7	0
34	47239	12.8	0
34	47239	12.9	0
34	47239	13	0
34	47239	13.1	0
34	47239	13.2	0
34	47239	13.3	0
34	47239	13.4	0
34	47239	13.5	0
34	47239	13.6	0
34	47239	13.7	0
34	47239	13.8	0
34	47239	13.9	0
34	47239	14	0
34	47239	14.1	0
34	47239	14.2	0
34	47239	14.3	0
34	47239	14.4	0
34	47239	14.5	0
34	47239	14.6	0
34	47239	14.7	0
34	47239	14.8	0
34	47239	14.9	0
34	47239	15	0
34	47239	15.1	0
34	47239	15.2	0
34	47239	15.3	0
34	47239	15.4	0
34	47239	15.5	0
34	47239	15.6	0
34	47239	15.7	0
34	47239	15.8	0
34	47239	15.9	0
34	47239	16	0
34	47239	16.1	0
34	47239	16.2	0
34	47239	16.3	0
34	47239	16.4	0
34	47239	16.5	0
34	47239	16.6	0
34	47239	16.7	0
34	47239	16.8	0
34	47239	16.9	0
34	47239	17	0
34	47239	17.1	0
34	47239	17.2	0
34	47239	17.3	0
34	47239	17.4	0
34	47239	17.5	0
34	47239	17.6	0
34	47239	17.7	0
34	47239	17.8	0
34	47239	17.9	0
34	47239	18	0
34	47239	18.1	0
34	47239	18.2	0
34	47239	18.3	0
34	47239	18.4	0
34	47239	18.5	0
34	47239	18.6	0
34	47239	18.7	0
34	47239	18.8	0
34	47239	18.9	0
34	47239	19	0
34	47239	19.1	0
34	47239	19.2	0
34	47239	19.3	0
34	47239	19.4	0
34	47239	19.5	0
34	47239	19.6	0
34	47239	19.7	0
34	47239	19.8	0
34	47239	19.9	0
34	47239	20	0

