version 2
run Wireless07-0-20200528-14:53:12-154180
attr configname Wireless07
attr datetime 20200528-14:53:12
attr experiment Wireless07
attr inifile omnetpp.ini
attr iterationvars ""
attr iterationvarsf ""
attr measurement ""
attr network WirelessB
attr processid 154180
attr repetition 0
attr replication #0
attr resultdir results
attr runnumber 0
attr seedset 0
param *.host*.wlan[0].mac.useAck true
param *.host*.wlan[0].typename "\"WirelessInterface\""
param *.host*.wlan[0].radio.typename "\"UnitDiskRadio\""
param *.host*.wlan[0].mac.typename "\"CsmaCaMac\""
param *.host*.wlan[0].mac.ackTimeout 300us
param *.host*.wlan[0].radio.receiver.ignoreInterference false
param *.host*.wlan[0].radio.transmitter.interferenceRange 500m
param *.hostA.wlan[0].radio.displayInterferenceRange true
param *.visualizer.dataLinkVisualizer.packetFilter "\"\""
param *.host*.forwarding true
param *.configurator.config "xml(\"<config><interface hosts='**' address='10.0.0.x' netmask='255.255.255.0'/><autoroute metric='errorRate'/></config>\")"
param *.configurator.optimizeRoutes false
param *.host*.ipv4.routingTable.netmaskRoutes "\"\""
param *.visualizer.physicalLinkVisualizer.displayLinks true
param *.visualizer.dataLinkVisualizer.displayLinks true
param *.visualizer.networkRouteVisualizer.displayRoutes true
param *.visualizer.*LinkVisualizer.lineShift 0
param *.visualizer.networkRouteVisualizer.lineShift 0
param *.visualizer.networkRouteVisualizer.packetFilter "\"UDPData*\""
param *.host*.wlan[0].radio.transmitter.communicationRange 250m
param *.hostR1.wlan[0].radio.displayCommunicationRange true
param *.hostA.wlan[0].radio.displayCommunicationRange true
param *.visualizer.sceneVisualizer.descriptionFigure "\"title\""
param *.visualizer.mediumVisualizer.displaySignals true
param *.visualizer.physicalLinkVisualizer.displayLinks true
param *.visualizer.physicalLinkVisualizer.packetFilter "\"UDPData*\""
param *.host*.ipv4.arp.typename "\"GlobalArp\""
param *.hostA.numApps 1
param *.hostA.app[0].typename "\"UdpBasicApp\""
param *.hostA.app[0].destAddresses "\"hostB\""
param *.hostA.app[0].destPort 5000
param *.hostA.app[0].messageLength 1000B
param *.hostA.app[0].sendInterval exponential(12ms)
param *.hostA.app[0].packetName "\"UDPData\""
param *.hostB.numApps 1
param *.hostB.app[0].typename "\"UdpSink\""
param *.hostB.app[0].localPort 5000
param *.host*.wlan[0].typename "\"AckingWirelessInterface\""
param *.host*.wlan[0].mac.useAck false
param *.host*.wlan[0].mac.fullDuplex false
param *.host*.wlan[0].radio.transmitter.communicationRange 500m
param *.host*.wlan[0].radio.receiver.ignoreInterference true
param *.host*.wlan[0].mac.headerLength 23B
param *.host*.**.bitrate 1Mbps

vector 0 WirelessB.hostA.wlan[0].radio radioMode:vector ETV
attr interpolationmode sample-hold
attr source radioModeChanged
attr title "Radio mode, vector"
vector 1 WirelessB.hostB.wlan[0].radio radioMode:vector ETV
attr interpolationmode sample-hold
attr source radioModeChanged
attr title "Radio mode, vector"
vector 2 WirelessB.hostR1.wlan[0].radio radioMode:vector ETV
attr interpolationmode sample-hold
attr source radioModeChanged
attr title "Radio mode, vector"
vector 3 WirelessB.hostR2.wlan[0].radio radioMode:vector ETV
attr interpolationmode sample-hold
attr source radioModeChanged
attr title "Radio mode, vector"
vector 4 WirelessB.hostR3.wlan[0].radio radioMode:vector ETV
attr interpolationmode sample-hold
attr source radioModeChanged
attr title "Radio mode, vector"
vector 5 WirelessB.hostA.wlan[0].radio receptionState:vector ETV
attr interpolationmode sample-hold
attr source receptionStateChanged
attr title "Radio reception state, vector"
vector 6 WirelessB.hostB.wlan[0].radio receptionState:vector ETV
attr interpolationmode sample-hold
attr source receptionStateChanged
attr title "Radio reception state, vector"
vector 7 WirelessB.hostR1.wlan[0].radio receptionState:vector ETV
attr interpolationmode sample-hold
attr source receptionStateChanged
attr title "Radio reception state, vector"
vector 8 WirelessB.hostR2.wlan[0].radio receptionState:vector ETV
attr interpolationmode sample-hold
attr source receptionStateChanged
attr title "Radio reception state, vector"
vector 9 WirelessB.hostR3.wlan[0].radio receptionState:vector ETV
attr interpolationmode sample-hold
attr source receptionStateChanged
attr title "Radio reception state, vector"
vector 10 WirelessB.hostA.app[0] packetSent:vector(packetBytes) ETV
attr interpolationmode none
attr source packetSent
attr title "packets sent, vector(packetBytes)"
vector 11 WirelessB.hostA.udp packetSent:vector(packetBytes) ETV
attr interpolationmode none
attr source packetSent
attr title "packets sent, vector(packetBytes)"
vector 12 WirelessB.hostA.wlan[0].mac.queue packetPushed:vector(packetBytes) ETV
attr interpolationmode none
attr title "packet pushed, vector(packetBytes)"
vector 13 WirelessB.hostA.wlan[0].mac.queue queueLength:vector ETV
attr interpolationmode sample-hold
attr source "count(packetPushed) - count(packetPopped) - count(packetRemoved) - count(packetDropped)"
attr title "queue length, vector"
vector 14 WirelessB.hostA.wlan[0].mac.queue packetPopped:vector(packetBytes) ETV
attr interpolationmode none
attr title "packet popped, vector(packetBytes)"
vector 15 WirelessB.hostA.wlan[0].mac.queue queueingTime:vector ETV
attr interpolationmode none
attr source queueingTime(packetPopped)
attr title "queueing times, vector"
attr unit s
vector 16 WirelessB.hostA.wlan[0].radio transmissionState:vector ETV
attr interpolationmode sample-hold
attr source transmissionStateChanged
attr title "Radio transmission state, vector"
vector 17 WirelessB.hostR2.wlan[0].mac packetDropNotAddressedToUs:vector(packetBytes) ETV
attr interpolationmode none
attr source packetDropReasonIsNotAddressedToUs(packetDropped)
attr title "packet drop: not addressed to us, vector(packetBytes)"
vector 18 WirelessB.hostR1.wlan[0].mac.queue packetPushed:vector(packetBytes) ETV
attr interpolationmode none
attr title "packet pushed, vector(packetBytes)"
vector 19 WirelessB.hostR1.wlan[0].mac.queue queueLength:vector ETV
attr interpolationmode sample-hold
attr source "count(packetPushed) - count(packetPopped) - count(packetRemoved) - count(packetDropped)"
attr title "queue length, vector"
vector 20 WirelessB.hostR1.wlan[0].radio transmissionState:vector ETV
attr interpolationmode sample-hold
attr source transmissionStateChanged
attr title "Radio transmission state, vector"
vector 21 WirelessB.hostR1.wlan[0].mac.queue packetPopped:vector(packetBytes) ETV
attr interpolationmode none
attr title "packet popped, vector(packetBytes)"
vector 22 WirelessB.hostR1.wlan[0].mac.queue queueingTime:vector ETV
attr interpolationmode none
attr source queueingTime(packetPopped)
attr title "queueing times, vector"
attr unit s
vector 23 WirelessB.hostR3.wlan[0].mac packetDropNotAddressedToUs:vector(packetBytes) ETV
attr interpolationmode none
attr source packetDropReasonIsNotAddressedToUs(packetDropped)
attr title "packet drop: not addressed to us, vector(packetBytes)"
vector 24 WirelessB.hostA.wlan[0].mac packetDropNotAddressedToUs:vector(packetBytes) ETV
attr interpolationmode none
attr source packetDropReasonIsNotAddressedToUs(packetDropped)
attr title "packet drop: not addressed to us, vector(packetBytes)"
vector 25 WirelessB.hostB.udp packetReceived:vector(packetBytes) ETV
attr interpolationmode none
attr source packetReceived
attr title "packets received, vector(packetBytes)"
vector 26 WirelessB.hostB.udp passedUpPk:vector(count) ETV
attr interpolationmode none
attr source packetSentToUpper
attr title "packets passed up, vector(count)"
vector 27 WirelessB.hostB.app[0] packetReceived:vector(packetBytes) ETV
attr interpolationmode none
attr source packetReceived
attr title "packets received, vector(packetBytes)"
vector 28 WirelessB.hostB.app[0] endToEndDelay:vector ETV
attr interpolationmode none
attr source dataAge(packetReceived)
attr title "end-to-end delay, vector"
attr unit s
vector 29 WirelessB.hostB.app[0] rcvdPkSeqNo:vector ETV
attr interpolationmode none
attr source appPkSeqNo(packetReceived)
attr title "received packet sequence number, vector"
vector 30 WirelessB.hostB.wlan[0].radio transmissionState:vector ETV
attr interpolationmode sample-hold
attr source transmissionStateChanged
attr title "Radio transmission state, vector"
vector 31 WirelessB.hostB.app[0] throughput:vector ETV
attr source throughput(packetReceived)
attr title "throughput, vector"
attr unit bps
vector 32 WirelessB.hostR2.wlan[0].mac packetDropIncorrectlyReceived:vector(packetBytes) ETV
attr interpolationmode none
attr source packetDropReasonIsIncorrectlyReceived(packetDropped)
attr title "packet drop: incorrectly received, vector(packetBytes)"
vector 33 WirelessB.hostR3.wlan[0].mac packetDropIncorrectlyReceived:vector(packetBytes) ETV
attr interpolationmode none
attr source packetDropReasonIsIncorrectlyReceived(packetDropped)
attr title "packet drop: incorrectly received, vector(packetBytes)"
vector 34 WirelessB.hostB.wlan[0].mac packetDropIncorrectlyReceived:vector(packetBytes) ETV
attr interpolationmode none
attr source packetDropReasonIsIncorrectlyReceived(packetDropped)
attr title "packet drop: incorrectly received, vector(packetBytes)"
0	0	0	0
0	0	0	0
0	0	0	2
0	10	0.022885250545	3
0	20	0.031421250545	2
0	78	0.041019929441	3
0	90	0.049555929441	2
0	116	0.049957274081	3
0	140	0.058493274081	2
0	166	0.058894618721	3
0	174	0.067430618721	2
0	274	0.086006642257	3
0	282	0.094542642257	2
0	308	0.094903986897	3
0	320	0.103439986897	2
0	381	0.112958665793	3
0	389	0.121494665793	2
0	497	0.139850689329	3
0	509	0.148386689329	2
0	535	0.148888033969	3
0	547	0.157424033969	2
0	573	0.157785378609	3
0	585	0.166321378609	2
0	646	0.175820057505	3
0	658	0.184356057505	2
0	684	0.184657402145	3
0	696	0.193193402145	2
0	722	0.193914746785	3
0	734	0.202450746785	2
0	799	0.211749425681	3
0	811	0.220285425681	2
0	876	0.229624104577	3
0	888	0.238160104577	2
0	914	0.238601449217	3
0	922	0.247137449217	2
0	948	0.247618793857	3
0	960	0.256154793857	2
0	990	0.256576138497	3
0	1011	0.265112138497	2
0	1021	0.265822138497	3
0	1033	0.274358138497	2
0	1059	0.274939483137	3
0	1067	0.283475483137	2
0	1097	0.284016827777	3
0	1113	0.292552827777	2
0	1178	0.301771506673	3
0	1190	0.310307506673	2
0	1216	0.310668851313	3
0	1228	0.319204851313	2
0	1293	0.328743530209	3
0	1305	0.337279530209	2
0	1374	0.346718209105	3
0	1390	0.355254209105	2
0	1416	0.355615553745	3
0	1428	0.364151553745	2
0	1454	0.364552898385	3
0	1470	0.373088898385	2
0	1531	0.382307577281	3
0	1539	0.390843577281	2
0	1674	0.417976945457	3
0	1686	0.426512945457	2
0	1755	0.436071624353	3
0	1779	0.444607624353	2
0	1844	0.454346303249	3
0	1852	0.462882303249	2
0	1878	0.463243647889	3
0	1886	0.471779647889	2
0	1951	0.481278326785	3
0	1963	0.489814326785	2
0	2145	0.526005039601	3
0	2157	0.534541039601	2
0	2222	0.544119718497	3
0	2234	0.552655718497	2
0	2303	0.562174397393	3
0	2315	0.570710397393	2
0	2341	0.571051742033	3
0	2353	0.579587742033	2
0	2379	0.579929086673	3
0	2387	0.588465086673	2
0	2413	0.588986431313	3
0	2425	0.597522431313	2
0	2490	0.606821110209	3
0	2502	0.615357110209	2
0	2528	0.615698454849	3
0	2536	0.624234454849	2
0	2562	0.625015799489	3
0	2570	0.633551799489	2
0	2635	0.643090478385	3
0	2643	0.651626478385	2
0	2743	0.669882501921	3
0	2762	0.678418501921	2
0	2887	0.706480535841	3
0	2910	0.715016535841	2
0	3121	0.761753259041	3
0	3133	0.770289259041	2
0	3159	0.770730603681	3
0	3171	0.779266603681	2
0	3240	0.788705282577	3
0	3260	0.797241282577	2
0	3360	0.815837306113	3
0	3372	0.824373306113	2
0	3398	0.825034650753	3
0	3418	0.833570650753	2
0	3479	0.843149329649	3
0	3487	0.851685329649	2
0	3583	0.870241353185	3
0	3595	0.878777353185	2
0	3621	0.879298697825	3
0	3637	0.887834697825	2
0	3745	0.906030721361	3
0	3760	0.914566721361	2
0	3772	0.915296721361	3
0	3788	0.923832721361	2
0	3849	0.933251400257	3
0	3857	0.941787400257	2
0	3930	0.951346079153	3
0	3938	0.959882079153	2
0	4069	0.987155447329	3
0	4081	0.995691447329	2
0	4107	0.996052791969	3
0	4115	1.004588791969	2
0	4219	1.023184815505	3
0	4227	1.031720815505	2
0	4412	1.067951528321	3
0	4420	1.076487528321	2
0	4484	1.085726207217	3
0	4496	1.094262207217	2
0	4522	1.094723551857	3
0	4530	1.103259551857	2
0	4629	1.121815575393	3
0	4641	1.130351575393	2
0	4667	1.130812920033	3
0	4683	1.139348920033	2
0	4709	1.139710264673	3
0	4717	1.148246264673	2
0	4743	1.148687609313	3
0	4751	1.157223609313	2
0	4851	1.175759632849	3
0	4863	1.184295632849	2
0	4924	1.193794311745	3
0	4932	1.202330311745	2
0	4993	1.212048990641	3
0	5001	1.220584990641	2
0	5105	1.239141014177	3
0	5113	1.247677014177	2
0	5220	1.266233037713	3
0	5236	1.274769037713	2
0	5304	1.284267716609	3
0	5324	1.292803716609	2
0	5350	1.293105061249	3
0	5362	1.301641061249	2
0	5461	1.320177084785	3
0	5477	1.328713084785	2
0	5503	1.329214429425	3
0	5511	1.337750429425	2
0	5537	1.338131774065	3
0	5553	1.346667774065	2
0	5614	1.355866452961	3
0	5622	1.364402452961	2
0	5648	1.364863797601	3
0	5660	1.373399797601	2
0	5725	1.383118476497	3
0	5737	1.391654476497	2
0	5798	1.400953155393	3
0	5806	1.409489155393	2
0	5906	1.427925178929	3
0	5914	1.436461178929	2
0	5940	1.437162523569	3
0	5952	1.445698523569	2
0	6017	1.455057202465	3
0	6025	1.463593202465	2
0	6051	1.463894547105	3
0	6063	1.472430547105	2
0	6124	1.482009226001	3
0	6132	1.490545226001	2
0	6158	1.491246570641	3
0	6170	1.499782570641	2
0	6270	1.518198594177	3
0	6282	1.526734594177	2
0	6390	1.544970617713	3
0	6398	1.553506617713	2
0	6463	1.562785296609	3
0	6471	1.571321296609	2
0	6497	1.571822641249	3
0	6513	1.580358641249	2
0	6613	1.598714664785	3
0	6621	1.607250664785	2
0	6647	1.607592009425	3
0	6659	1.616128009425	2
0	6728	1.625686688321	3
0	6736	1.634222688321	2
0	6762	1.634884032961	3
0	6770	1.643420032961	2
0	6831	1.652818711857	3
0	6843	1.661354711857	2
0	6869	1.661856056497	3
0	6877	1.670392056497	2
0	6977	1.688788080033	3
0	6985	1.697324080033	2
0	7101	1.715820103569	3
0	7109	1.724356103569	2
0	7170	1.733654782465	3
0	7182	1.742190782465	2
0	7243	1.751649461361	3
0	7251	1.760185461361	2
0	7312	1.769764140257	3
0	7320	1.778300140257	2
0	7346	1.778901484897	3
0	7354	1.787437484897	2
0	7458	1.805913508433	3
0	7466	1.814449508433	2
0	7570	1.832925531969	3
0	7578	1.841461531969	2
0	7639	1.851060210865	3
0	7647	1.859596210865	2
0	7673	1.859977555505	3
0	7681	1.868513555505	2
0	7750	1.877992234401	3
0	7758	1.886528234401	2
0	7819	1.896166913297	3
0	7835	1.904702913297	2
0	7896	1.914381592193	3
0	7908	1.922917592193	2
0	7969	1.932476271089	3
0	7977	1.941012271089	2
0	8089	1.959368294625	3
0	8101	1.967904294625	2
0	8162	1.977442973521	3
0	8174	1.985978973521	2
0	8239	1.995717652417	3
0	8247	2.004253652417	2
0	8273	2.004634997057	3
0	8281	2.013170997057	2
0	8307	2.013552341697	3
0	8315	2.022088341697	2
0	8376	2.031547020593	3
0	8384	2.040083020593	2
0	8484	2.058319044129	3
0	8492	2.066855044129	2
0	8522	2.067696388769	3
0	8539	2.076232388769	2
0	8598	2.086679723025	3
0	8604	2.095215723025	2
0	8630	2.095577067665	3
0	8638	2.104113067665	2
0	8738	2.122469091201	3
0	8746	2.131005091201	2
0	8772	2.131346435841	3
0	8784	2.139882435841	2
0	8810	2.140243780481	3
0	8818	2.148779780481	2
0	8891	2.158158459377	3
0	8903	2.166694459377	2
0	8929	2.167055804017	3
0	8941	2.175591804017	2
0	8967	2.175953148657	3
0	8979	2.184489148657	2
0	9005	2.184950493297	3
0	9021	2.193486493297	2
0	9168	2.220819861473	3
0	9184	2.229355861473	2
0	9210	2.229717206113	3
0	9222	2.238253206113	2
0	9252	2.238794550753	3
0	9277	2.247330550753	2
0	9400	2.274812574289	3
0	9416	2.283348574289	2
0	9442	2.283809918929	3
0	9450	2.292345918929	2
0	9511	2.301704597825	3
0	9523	2.310240597825	2
0	9588	2.319759276721	3
0	9604	2.328295276721	2
0	9630	2.328596621361	3
0	9642	2.337132621361	2
0	9777	2.364225989537	3
0	9785	2.372761989537	2
0	9846	2.382440668433	3
0	9858	2.390976668433	2
0	9923	2.400295347329	3
0	9935	2.408831347329	2
0	9961	2.409192691969	3
0	9977	2.417728691969	2
0	10003	2.418330036609	3
0	10023	2.426866036609	2
0	10088	2.436364715505	3
0	10104	2.444900715505	2
0	10165	2.454559394401	3
0	10173	2.463095394401	2
0	10273	2.481591417937	3
0	10281	2.490127417937	2
0	10311	2.490468762577	3
0	10332	2.499004762577	2
0	10387	2.509112096833	3
0	10393	2.517648096833	2
0	10419	2.518109441473	3
0	10443	2.526645441473	2
0	10543	2.545041465009	3
0	10551	2.553577465009	2
0	10690	2.580810833185	3
0	10698	2.589346833185	2
0	10771	2.598845512081	3
0	10787	2.607381512081	2
0	10934	2.634774880257	3
0	10954	2.643310880257	2
0	10980	2.643612224897	3
0	10992	2.652148224897	2
0	11018	2.652489569537	3
0	11026	2.661025569537	2
0	11181	2.688138937713	3
0	11193	2.696674937713	2
0	11219	2.697076282353	3
0	11231	2.705612282353	2
0	11257	2.706173626993	3
0	11273	2.714709626993	2
0	11424	2.742142995169	3
0	11440	2.750678995169	2
0	11583	2.777952363345	3
0	11591	2.786488363345	2
0	11690	2.804904386881	3
0	11706	2.813440386881	2
0	11732	2.813941731521	3
0	11740	2.822477731521	2
0	11766	2.822839076161	3
0	11778	2.831375076161	2
0	11847	2.841013755057	3
0	11855	2.849549755057	2
0	11959	2.867885778593	3
0	11967	2.876421778593	2
0	12066	2.894997802129	3
0	12082	2.903533802129	2
0	12142	2.913152481025	3
0	12154	2.921688481025	2
0	12214	2.931107159921	3
0	12222	2.939643159921	2
0	12248	2.940084504561	3
0	12256	2.948620504561	2
0	12321	2.958179183457	3
0	12344	2.966715183457	2
0	12360	2.967405183457	3
0	12372	2.975941183457	2
1	0	0	0
1	0	0	0
1	0	0	2
1	64	0.040408595185	3
1	70	0.040648595185	2
1	220	0.076417963361	3
1	226	0.076657963361	2
1	259	0.085555308001	3
1	265	0.085795308001	2
1	366	0.112427331537	3
1	372	0.112667331537	2
1	443	0.130682010433	3
1	449	0.130922010433	2
1	482	0.139539355073	3
1	488	0.139779355073	2
1	631	0.175508723249	3
1	637	0.175748723249	2
1	784	0.211318091425	3
1	790	0.211558091425	2
1	861	0.229292770321	3
1	867	0.229532770321	2
1	1159	0.301440172417	3
1	1169	0.301680172417	2
1	1278	0.328252195953	3
1	1284	0.328492195953	2
1	1359	0.346226874849	3
1	1365	0.346466874849	2
1	1516	0.381996243025	3
1	1522	0.382236243025	2
1	1589	0.399710921921	3
1	1595	0.399950921921	2
1	1624	0.408588266561	3
1	1630	0.408828266561	2
1	1659	0.417625611201	3
1	1665	0.417865611201	2
1	1740	0.435560290097	3
1	1746	0.435800290097	2
1	1829	0.453594968993	3
1	1835	0.453834968993	2
1	1936	0.480646992529	3
1	1942	0.480886992529	2
1	2013	0.498721671425	3
1	2023	0.498961671425	2
1	2052	0.507639016065	3
1	2058	0.507879016065	2
1	2095	0.516676360705	3
1	2101	0.516916360705	2
1	2130	0.525553705345	3
1	2136	0.525793705345	2
1	2207	0.543608384241	3
1	2213	0.543848384241	2
1	2288	0.561663063137	3
1	2294	0.561903063137	2
1	2475	0.606449775953	3
1	2481	0.606689775953	2
1	2620	0.642419144129	3
1	2626	0.642659144129	2
1	2689	0.660673823025	3
1	2695	0.660913823025	2
1	2724	0.669511167665	3
1	2730	0.669751167665	2
1	2794	0.687534512305	3
1	2804	0.687774512305	2
1	2833	0.696871856945	3
1	2839	0.697111856945	2
1	2868	0.705969201585	3
1	2874	0.706209201585	2
1	2946	0.724332546225	3
1	2952	0.724572546225	2
1	2985	0.733729890865	3
1	2991	0.733969890865	2
1	3028	0.742987235505	3
1	3034	0.743227235505	2
1	3067	0.751824580145	3
1	3073	0.752064580145	2
1	3106	0.761201924785	3
1	3112	0.761441924785	2
1	3221	0.788133948321	3
1	3231	0.788373948321	2
1	3310	0.806108627217	3
1	3316	0.806348627217	2
1	3345	0.815425971857	3
1	3351	0.815665971857	2
1	3464	0.842517995393	3
1	3470	0.842757995393	2
1	3533	0.860792674289	3
1	3539	0.861032674289	2
1	3568	0.869730018929	3
1	3574	0.869970018929	2
1	3691	0.896702042465	3
1	3697	0.896942042465	2
1	3726	0.905699387105	3
1	3732	0.905939387105	2
1	3834	0.932840066001	3
1	3840	0.933080066001	2
1	3915	0.950914744897	3
1	3921	0.951154744897	2
1	3984	0.968769423793	3
1	3990	0.969009423793	2
1	4019	0.977666768433	3
1	4025	0.977906768433	2
1	4054	0.986784113073	3
1	4060	0.987024113073	2
1	4161	1.013816136609	3
1	4167	1.014056136609	2
1	4204	1.022833481249	3
1	4210	1.023073481249	2
1	4277	1.040648160145	3
1	4283	1.040888160145	2
1	4312	1.049725504785	3
1	4318	1.049965504785	2
1	4351	1.058602849425	3
1	4357	1.058842849425	2
1	4398	1.067460194065	3
1	4404	1.067700194065	2
1	4470	1.085374872961	3
1	4476	1.085614872961	2
1	4576	1.112546896497	3
1	4582	1.112786896497	2
1	4615	1.121404241137	3
1	4621	1.121644241137	2
1	4797	1.166250953953	3
1	4803	1.166490953953	2
1	4836	1.175148298593	3
1	4842	1.175388298593	2
1	4909	1.193402977489	3
1	4915	1.193642977489	2
1	4978	1.211417656385	3
1	4984	1.211657656385	2
1	5055	1.229492335281	3
1	5061	1.229732335281	2
1	5090	1.238569679921	3
1	5096	1.238809679921	2
1	5159	1.256664358817	3
1	5165	1.256904358817	2
1	5202	1.265541703457	3
1	5212	1.265781703457	2
1	5290	1.283756382353	3
1	5296	1.283996382353	2
1	5412	1.310848405889	3
1	5418	1.311088405889	2
1	5447	1.319865750529	3
1	5453	1.320105750529	2
1	5599	1.355555118705	3
1	5605	1.355795118705	2
1	5710	1.382447142241	3
1	5716	1.382687142241	2
1	5783	1.400581821137	3
1	5789	1.400821821137	2
1	5856	1.418396500033	3
1	5862	1.418636500033	2
1	5891	1.427573844673	3
1	5897	1.427813844673	2
1	6002	1.454565868209	3
1	6008	1.454805868209	2
1	6109	1.481577891745	3
1	6115	1.481817891745	2
1	6220	1.508649915281	3
1	6226	1.508889915281	2
1	6255	1.517867259921	3
1	6261	1.518107259921	2
1	6328	1.535681938817	3
1	6334	1.535921938817	2
1	6375	1.544619283457	3
1	6381	1.544859283457	2
1	6448	1.562373962353	3
1	6454	1.562613962353	2
1	6559	1.589405985889	3
1	6565	1.589645985889	2
1	6598	1.598303330529	3
1	6604	1.598543330529	2
1	6713	1.625235354065	3
1	6719	1.625475354065	2
1	6816	1.652307377601	3
1	6822	1.652547377601	2
1	6923	1.679279401137	3
1	6929	1.679519401137	2
1	6962	1.688436745777	3
1	6968	1.688676745777	2
1	7039	1.706431424673	3
1	7045	1.706671424673	2
1	7086	1.715468769313	3
1	7092	1.715708769313	2
1	7155	1.733283448209	3
1	7161	1.733523448209	2
1	7228	1.751218127105	3
1	7234	1.751458127105	2
1	7297	1.769372806001	3
1	7303	1.769612806001	2
1	7404	1.796364829537	3
1	7410	1.796604829537	2
1	7443	1.805322174177	3
1	7449	1.805562174177	2
1	7512	1.823396853073	3
1	7518	1.823636853073	2
1	7551	1.832274197713	3
1	7557	1.832514197713	2
1	7624	1.850428876609	3
1	7630	1.850668876609	2
1	7735	1.877420900145	3
1	7741	1.877660900145	2
1	7804	1.895535579041	3
1	7810	1.895775579041	2
1	7881	1.913610257937	3
1	7887	1.913850257937	2
1	7954	1.931864936833	3
1	7960	1.932104936833	2
1	8027	1.949999615729	3
1	8033	1.950239615729	2
1	8074	1.958976960369	3
1	8080	1.959216960369	2
1	8147	1.977131639265	3
1	8153	1.977371639265	2
1	8224	1.995226318161	3
1	8230	1.995466318161	2
1	8361	2.030975686337	3
1	8367	2.031215686337	2
1	8434	2.048970365233	3
1	8440	2.049210365233	2
1	8469	2.057967709873	3
1	8475	2.058207709873	2
1	8577	2.085988388769	3
1	8583	2.086228388769	2
1	8684	2.113060412305	3
1	8690	2.113300412305	2
1	8723	2.122137756945	3
1	8729	2.122377756945	2
1	8876	2.157687125121	3
1	8882	2.157927125121	2
1	9075	2.202353837937	3
1	9081	2.202593837937	2
1	9114	2.211371182577	3
1	9120	2.211611182577	2
1	9153	2.220228527217	3
1	9159	2.220468527217	2
1	9307	2.256606550753	3
1	9313	2.256846550753	2
1	9346	2.265443895393	3
1	9352	2.265683895393	2
1	9385	2.274501240033	3
1	9391	2.274741240033	2
1	9496	2.301393263569	3
1	9502	2.301633263569	2
1	9573	2.319347942465	3
1	9579	2.319587942465	2
1	9692	2.346059966001	3
1	9698	2.346299966001	2
1	9727	2.355017310641	3
1	9733	2.355257310641	2
1	9762	2.363874655281	3
1	9768	2.364114655281	2
1	9831	2.381789334177	3
1	9837	2.382029334177	2
1	9908	2.399964013073	3
1	9914	2.400204013073	2
1	10073	2.435893381249	3
1	10079	2.436133381249	2
1	10150	2.453828060145	3
1	10156	2.454068060145	2
1	10223	2.471962739041	3
1	10229	2.472202739041	2
1	10258	2.481040083681	3
1	10264	2.481280083681	2
1	10370	2.508660762577	3
1	10376	2.508900762577	2
1	10493	2.535692786113	3
1	10499	2.535932786113	2
1	10528	2.544710130753	3
1	10534	2.544950130753	2
1	10601	2.562504809649	3
1	10607	2.562744809649	2
1	10640	2.571482154289	3
1	10646	2.571722154289	2
1	10675	2.580499498929	3
1	10681	2.580739498929	2
1	10756	2.598214177825	3
1	10762	2.598454177825	2
1	10837	2.616508856721	3
1	10843	2.616748856721	2
1	10872	2.625586201361	3
1	10878	2.625826201361	2
1	10919	2.634423546001	3
1	10925	2.634663546001	2
1	11092	2.669972914177	3
1	11102	2.670212914177	2
1	11131	2.678930258817	3
1	11137	2.679170258817	2
1	11166	2.687807603457	3
1	11172	2.688047603457	2
1	11327	2.723716971633	3
1	11333	2.723956971633	2
1	11366	2.732814316273	3
1	11372	2.733054316273	2
1	11409	2.741811660913	3
1	11415	2.742051660913	2
1	11490	2.759586339809	3
1	11496	2.759826339809	2
1	11525	2.768443684449	3
1	11531	2.768683684449	2
1	11568	2.777381029089	3
1	11574	2.777621029089	2
1	11641	2.795595707985	3
1	11647	2.795835707985	2
1	11676	2.804593052625	3
1	11682	2.804833052625	2
1	11832	2.840502420801	3
1	11838	2.840742420801	2
1	11909	2.858457099697	3
1	11915	2.858697099697	2
1	11944	2.867394444337	3
1	11950	2.867634444337	2
1	12017	2.885689123233	3
1	12023	2.885929123233	2
1	12052	2.894626467873	3
1	12058	2.894866467873	2
1	12128	2.912841146769	3
1	12134	2.913081146769	2
1	12200	2.930555825665	3
1	12206	2.930795825665	2
1	12302	2.957667849201	3
1	12308	2.957907849201	2
2	0	0	0
2	0	0	0
2	0	0	2
2	29	0.031431922865	3
2	35	0.031671922865	2
2	46	0.031861922865	3
2	52	0.040397922865	2
2	99	0.049566601761	3
2	105	0.049806601761	2
2	149	0.058503946401	3
2	155	0.058743946401	2
2	183	0.067441291041	3
2	189	0.067681291041	2
2	200	0.067871291041	3
2	208	0.076407291041	2
2	235	0.077008635681	3
2	247	0.085544635681	2
2	291	0.094553314577	3
2	297	0.094793314577	2
2	329	0.103450659217	3
2	335	0.103690659217	2
2	346	0.103880659217	3
2	354	0.112416659217	2
2	398	0.121505338113	3
2	404	0.121745338113	2
2	415	0.122135338113	3
2	431	0.130671338113	2
2	458	0.130992682753	3
2	470	0.139528682753	2
2	518	0.148397361649	3
2	524	0.148637361649	2
2	556	0.157434706289	3
2	562	0.157674706289	2
2	594	0.166332050929	3
2	600	0.166572050929	2
2	611	0.166962050929	3
2	619	0.175498050929	2
2	667	0.184366729825	3
2	673	0.184606729825	2
2	705	0.193204074465	3
2	711	0.193444074465	2
2	743	0.202461419105	3
2	749	0.202701419105	2
2	760	0.202771419105	3
2	772	0.211307419105	2
2	820	0.220296098001	3
2	826	0.220536098001	2
2	837	0.220746098001	3
2	849	0.229282098001	2
2	897	0.238170776897	3
2	903	0.238410776897	2
2	931	0.247148121537	3
2	937	0.247388121537	2
2	969	0.256165466177	3
2	975	0.256405466177	2
2	986	0.256575466177	3
2	1004	0.265111466177	2
2	1042	0.274368810817	3
2	1048	0.274608810817	2
2	1076	0.283486155457	3
2	1086	0.283726155457	2
2	1122	0.292563500097	3
2	1128	0.292803500097	2
2	1139	0.292893500097	3
2	1147	0.301429500097	2
2	1199	0.310318178993	3
2	1205	0.310558178993	2
2	1237	0.319215523633	3
2	1243	0.319455523633	2
2	1254	0.319705523633	3
2	1266	0.328241523633	2
2	1314	0.337290202529	3
2	1324	0.337530202529	2
2	1335	0.337680202529	3
2	1347	0.346216202529	2
2	1399	0.355264881425	3
2	1405	0.355504881425	2
2	1437	0.364162226065	3
2	1443	0.364402226065	2
2	1479	0.373099570705	3
2	1485	0.373339570705	2
2	1496	0.373449570705	3
2	1504	0.381985570705	2
2	1548	0.390854249601	3
2	1554	0.391094249601	2
2	1565	0.391164249601	3
2	1577	0.399700249601	2
2	1604	0.400041594241	3
2	1612	0.408577594241	2
2	1639	0.409078938881	3
2	1647	0.417614938881	2
2	1695	0.426523617777	3
2	1701	0.426763617777	2
2	1712	0.427013617777	3
2	1728	0.435549617777	2
2	1788	0.444618296673	3
2	1794	0.444858296673	2
2	1805	0.445048296673	3
2	1817	0.453584296673	2
2	1861	0.462892975569	3
2	1867	0.463132975569	2
2	1895	0.471790320209	3
2	1901	0.472030320209	2
2	1912	0.472100320209	3
2	1924	0.480636320209	2
2	1972	0.489824999105	3
2	1978	0.490064999105	2
2	1989	0.490174999105	3
2	2001	0.498710999105	2
2	2032	0.499092343745	3
2	2040	0.507628343745	2
2	2067	0.508129688385	3
2	2083	0.516665688385	2
2	2110	0.517007033025	3
2	2118	0.525543033025	2
2	2166	0.534551711921	3
2	2172	0.534791711921	2
2	2183	0.535061711921	3
2	2195	0.543597711921	2
2	2243	0.552666390817	3
2	2249	0.552906390817	2
2	2260	0.553116390817	3
2	2276	0.561652390817	2
2	2324	0.570721069713	3
2	2330	0.570961069713	2
2	2362	0.579598414353	3
2	2368	0.579838414353	2
2	2396	0.588475758993	3
2	2402	0.588715758993	2
2	2434	0.597533103633	3
2	2440	0.597773103633	2
2	2451	0.597903103633	3
2	2463	0.606439103633	2
2	2511	0.615367782529	3
2	2517	0.615607782529	2
2	2545	0.624245127169	3
2	2551	0.624485127169	2
2	2579	0.633562471809	3
2	2585	0.633802471809	2
2	2596	0.633872471809	3
2	2608	0.642408471809	2
2	2652	0.651637150705	3
2	2658	0.651877150705	2
2	2669	0.652127150705	3
2	2677	0.660663150705	2
2	2703	0.660964495345	3
2	2712	0.669500495345	2
2	2739	0.669881839985	3
2	2757	0.678417839985	2
2	2774	0.678987839985	3
2	2782	0.687523839985	2
2	2813	0.688325184625	3
2	2821	0.696861184625	2
2	2848	0.697422529265	3
2	2856	0.705958529265	2
2	2883	0.706479873905	3
2	2905	0.715015873905	2
2	2926	0.715785873905	3
2	2934	0.724321873905	2
2	2963	0.725183218545	3
2	2973	0.733719218545	2
2	3001	0.734440563185	3
2	3016	0.742976563185	2
2	3042	0.743277907825	3
2	3055	0.751813907825	2
2	3082	0.752655252465	3
2	3094	0.761191252465	2
2	3142	0.770299931361	3
2	3148	0.770539931361	2
2	3180	0.779277276001	3
2	3186	0.779517276001	2
2	3197	0.779587276001	3
2	3209	0.788123276001	2
2	3269	0.797251954897	3
2	3275	0.797491954897	2
2	3286	0.797561954897	3
2	3298	0.806097954897	2
2	3325	0.806879299537	3
2	3333	0.815415299537	2
2	3381	0.824383978433	3
2	3387	0.824623978433	2
2	3427	0.833581323073	3
2	3433	0.833821323073	2
2	3444	0.833971323073	3
2	3452	0.842507323073	2
2	3496	0.851696001969	3
2	3502	0.851936001969	2
2	3513	0.852246001969	3
2	3521	0.860782001969	2
2	3548	0.861183346609	3
2	3556	0.869719346609	2
2	3604	0.878788025505	3
2	3610	0.879028025505	2
2	3646	0.887845370145	3
2	3652	0.888085370145	2
2	3663	0.888155370145	3
2	3679	0.896691370145	2
2	3706	0.897152714785	3
2	3714	0.905688714785	2
2	3741	0.906030059425	3
2	3755	0.914566059425	2
2	3797	0.923843393681	3
2	3803	0.924083393681	2
2	3814	0.924293393681	3
2	3822	0.932829393681	2
2	3866	0.941798072577	3
2	3872	0.942038072577	2
2	3883	0.942368072577	3
2	3903	0.950904072577	2
2	3947	0.959892751473	3
2	3953	0.960132751473	2
2	3964	0.960222751473	3
2	3972	0.968758751473	2
2	3999	0.969120096113	3
2	4007	0.977656096113	2
2	4034	0.978237440753	3
2	4042	0.986773440753	2
2	4090	0.995702119649	3
2	4096	0.995942119649	2
2	4124	1.004599464289	3
2	4130	1.004839464289	2
2	4141	1.005269464289	3
2	4149	1.013805464289	2
2	4176	1.014286808929	3
2	4192	1.022822808929	2
2	4236	1.031731487825	3
2	4242	1.031971487825	2
2	4253	1.032101487825	3
2	4265	1.040637487825	2
2	4292	1.041178832465	3
2	4300	1.049714832465	2
2	4327	1.050056177105	3
2	4339	1.058592177105	2
2	4366	1.058913521745	3
2	4386	1.067449521745	2
2	4429	1.076498200641	3
2	4435	1.076738200641	2
2	4446	1.076828200641	3
2	4458	1.085364200641	2
2	4505	1.094272879537	3
2	4511	1.094512879537	2
2	4539	1.103270224177	3
2	4545	1.103510224177	2
2	4556	1.104000224177	3
2	4564	1.112536224177	2
2	4591	1.112857568817	3
2	4603	1.121393568817	2
2	4650	1.130362247713	3
2	4656	1.130602247713	2
2	4692	1.139359592353	3
2	4698	1.139599592353	2
2	4726	1.148256936993	3
2	4732	1.148496936993	2
2	4760	1.157234281633	3
2	4766	1.157474281633	2
2	4777	1.157704281633	3
2	4785	1.166240281633	2
2	4812	1.166601626273	3
2	4824	1.175137626273	2
2	4872	1.184306305169	3
2	4878	1.184546305169	2
2	4889	1.184856305169	3
2	4897	1.193392305169	2
2	4941	1.202340984065	3
2	4947	1.202580984065	2
2	4958	1.202870984065	3
2	4966	1.211406984065	2
2	5010	1.220595662961	3
2	5016	1.220835662961	2
2	5027	1.220945662961	3
2	5043	1.229481662961	2
2	5070	1.230023007601	3
2	5078	1.238559007601	2
2	5122	1.247687686497	3
2	5128	1.247927686497	2
2	5139	1.248117686497	3
2	5147	1.256653686497	2
2	5174	1.256995031137	3
2	5190	1.265531031137	2
2	5245	1.274779710033	3
2	5251	1.275019710033	2
2	5262	1.275209710033	3
2	5278	1.283745710033	2
2	5333	1.292814388929	3
2	5339	1.293054388929	2
2	5371	1.301651733569	3
2	5377	1.301891733569	2
2	5388	1.302301733569	3
2	5400	1.310837733569	2
2	5427	1.311319078209	3
2	5435	1.319855078209	2
2	5486	1.328723757105	3
2	5492	1.328963757105	2
2	5520	1.337761101745	3
2	5526	1.338001101745	2
2	5562	1.346678446385	3
2	5568	1.346918446385	2
2	5579	1.347008446385	3
2	5587	1.355544446385	2
2	5631	1.364413125281	3
2	5637	1.364653125281	2
2	5669	1.373410469921	3
2	5675	1.373650469921	2
2	5686	1.373900469921	3
2	5698	1.382436469921	2
2	5746	1.391665148817	3
2	5752	1.391905148817	2
2	5763	1.392035148817	3
2	5771	1.400571148817	2
2	5815	1.409499827713	3
2	5821	1.409739827713	2
2	5832	1.409849827713	3
2	5844	1.418385827713	2
2	5871	1.419027172353	3
2	5879	1.427563172353	2
2	5923	1.436471851249	3
2	5929	1.436711851249	2
2	5961	1.445709195889	3
2	5967	1.445949195889	2
2	5978	1.446019195889	3
2	5990	1.454555195889	2
2	6034	1.463603874785	3
2	6040	1.463843874785	2
2	6072	1.472441219425	3
2	6078	1.472681219425	2
2	6089	1.473031219425	3
2	6097	1.481567219425	2
2	6141	1.490555898321	3
2	6147	1.490795898321	2
2	6179	1.499793242961	3
2	6185	1.500033242961	2
2	6196	1.500103242961	3
2	6208	1.508639242961	2
2	6235	1.509320587601	3
2	6243	1.517856587601	2
2	6291	1.526745266497	3
2	6297	1.526985266497	2
2	6308	1.527135266497	3
2	6316	1.535671266497	2
2	6343	1.536072611137	3
2	6363	1.544608611137	2
2	6407	1.553517290033	3
2	6413	1.553757290033	2
2	6424	1.553827290033	3
2	6436	1.562363290033	2
2	6480	1.571331968929	3
2	6486	1.571571968929	2
2	6522	1.580369313569	3
2	6528	1.580609313569	2
2	6539	1.580859313569	3
2	6547	1.589395313569	2
2	6574	1.589756658209	3
2	6586	1.598292658209	2
2	6630	1.607261337105	3
2	6636	1.607501337105	2
2	6668	1.616138681745	3
2	6674	1.616378681745	2
2	6685	1.616688681745	3
2	6701	1.625224681745	2
2	6745	1.634233360641	3
2	6751	1.634473360641	2
2	6779	1.643430705281	3
2	6785	1.643670705281	2
2	6796	1.643760705281	3
2	6804	1.652296705281	2
2	6852	1.661365384177	3
2	6858	1.661605384177	2
2	6886	1.670402728817	3
2	6892	1.670642728817	2
2	6903	1.670732728817	3
2	6911	1.679268728817	2
2	6938	1.679890073457	3
2	6950	1.688426073457	2
2	6994	1.697334752353	3
2	7000	1.697574752353	2
2	7011	1.697884752353	3
2	7027	1.706420752353	2
2	7058	1.706922096993	3
2	7074	1.715458096993	2
2	7118	1.724366775889	3
2	7124	1.724606775889	2
2	7135	1.724736775889	3
2	7143	1.733272775889	2
2	7191	1.742201454785	3
2	7197	1.742441454785	2
2	7208	1.742671454785	3
2	7216	1.751207454785	2
2	7260	1.760196133681	3
2	7266	1.760436133681	2
2	7277	1.760826133681	3
2	7285	1.769362133681	2
2	7329	1.778310812577	3
2	7335	1.778550812577	2
2	7363	1.787448157217	3
2	7369	1.787688157217	2
2	7380	1.787818157217	3
2	7392	1.796354157217	2
2	7419	1.796775501857	3
2	7431	1.805311501857	2
2	7475	1.814460180753	3
2	7481	1.814700180753	2
2	7492	1.814850180753	3
2	7500	1.823386180753	2
2	7527	1.823727525393	3
2	7539	1.832263525393	2
2	7587	1.841472204289	3
2	7593	1.841712204289	2
2	7604	1.841882204289	3
2	7612	1.850418204289	2
2	7656	1.859606883185	3
2	7662	1.859846883185	2
2	7690	1.868524227825	3
2	7700	1.868764227825	2
2	7711	1.868874227825	3
2	7723	1.877410227825	2
2	7767	1.886538906721	3
2	7773	1.886778906721	2
2	7784	1.886988906721	3
2	7792	1.895524906721	2
2	7844	1.904713585617	3
2	7850	1.904953585617	2
2	7861	1.905063585617	3
2	7869	1.913599585617	2
2	7917	1.922928264513	3
2	7923	1.923168264513	2
2	7934	1.923318264513	3
2	7942	1.931854264513	2
2	7986	1.941022943409	3
2	7992	1.941262943409	2
2	8003	1.941452943409	3
2	8015	1.949988943409	2
2	8042	1.950430288049	3
2	8062	1.958966288049	2
2	8110	1.967914966945	3
2	8116	1.968154966945	2
2	8127	1.968584966945	3
2	8135	1.977120966945	2
2	8183	1.985989645841	3
2	8189	1.986229645841	2
2	8200	1.986679645841	3
2	8212	1.995215645841	2
2	8256	2.004264324737	3
2	8262	2.004504324737	2
2	8290	2.013181669377	3
2	8296	2.013421669377	2
2	8324	2.022099014017	3
2	8330	2.022339014017	2
2	8341	2.022429014017	3
2	8349	2.030965014017	2
2	8393	2.040093692913	3
2	8403	2.040333692913	2
2	8414	2.040423692913	3
2	8422	2.048959692913	2
2	8449	2.049421037553	3
2	8457	2.057957037553	2
2	8501	2.066865716449	3
2	8507	2.067105716449	2
2	8518	2.067695716449	3
2	8532	2.076231716449	2
2	8551	2.077441716449	3
2	8565	2.085977716449	2
2	8613	2.095226395345	3
2	8619	2.095466395345	2
2	8647	2.104123739985	3
2	8653	2.104363739985	2
2	8664	2.104513739985	3
2	8672	2.113049739985	2
2	8699	2.113591084625	3
2	8711	2.122127084625	2
2	8755	2.131015763521	3
2	8761	2.131255763521	2
2	8793	2.139893108161	3
2	8799	2.140133108161	2
2	8827	2.148790452801	3
2	8833	2.149030452801	2
2	8844	2.149140452801	3
2	8864	2.157676452801	2
2	8912	2.166705131697	3
2	8918	2.166945131697	2
2	8950	2.175602476337	3
2	8956	2.175842476337	2
2	8988	2.184499820977	3
2	8994	2.184739820977	2
2	9030	2.193497165617	3
2	9036	2.193737165617	2
2	9047	2.193807165617	3
2	9063	2.202343165617	2
2	9090	2.202824510257	3
2	9102	2.211360510257	2
2	9129	2.211681854897	3
2	9141	2.220217854897	2
2	9193	2.229366533793	3
2	9199	2.229606533793	2
2	9231	2.238263878433	3
2	9237	2.238503878433	2
2	9248	2.238793878433	3
2	9270	2.247329878433	2
2	9287	2.248059878433	3
2	9295	2.256595878433	2
2	9321	2.256897223073	3
2	9334	2.265433223073	2
2	9361	2.265954567713	3
2	9373	2.274490567713	2
2	9425	2.283359246609	3
2	9431	2.283599246609	2
2	9459	2.292356591249	3
2	9465	2.292596591249	2
2	9476	2.292846591249	3
2	9484	2.301382591249	2
2	9532	2.310251270145	3
2	9538	2.310491270145	2
2	9549	2.310801270145	3
2	9561	2.319337270145	2
2	9613	2.328305949041	3
2	9619	2.328545949041	2
2	9651	2.337143293681	3
2	9657	2.337383293681	2
2	9668	2.337513293681	3
2	9680	2.346049293681	2
2	9707	2.346470638321	3
2	9715	2.355006638321	2
2	9742	2.355327982961	3
2	9750	2.363863982961	2
2	9794	2.372772661857	3
2	9800	2.373012661857	2
2	9811	2.373242661857	3
2	9819	2.381778661857	2
2	9867	2.390987340753	3
2	9873	2.391227340753	2
2	9884	2.391417340753	3
2	9896	2.399953340753	2
2	9944	2.408842019649	3
2	9950	2.409082019649	2
2	9986	2.417739364289	3
2	9992	2.417979364289	2
2	10032	2.426876708929	3
2	10038	2.427116708929	2
2	10049	2.427346708929	3
2	10061	2.435882708929	2
2	10113	2.444911387825	3
2	10119	2.445151387825	2
2	10130	2.445281387825	3
2	10138	2.453817387825	2
2	10182	2.463106066721	3
2	10188	2.463346066721	2
2	10199	2.463416066721	3
2	10211	2.471952066721	2
2	10238	2.472493411361	3
2	10246	2.481029411361	2
2	10290	2.490138090257	3
2	10296	2.490378090257	2
2	10307	2.490468090257	3
2	10325	2.499004090257	2
2	10342	2.500114090257	3
2	10358	2.508650090257	2
2	10402	2.517658769153	3
2	10408	2.517898769153	2
2	10452	2.526656113793	3
2	10458	2.526896113793	2
2	10469	2.527146113793	3
2	10481	2.535682113793	2
2	10508	2.536163458433	3
2	10516	2.544699458433	2
2	10560	2.553588137329	3
2	10566	2.553828137329	2
2	10577	2.553958137329	3
2	10589	2.562494137329	2
2	10616	2.562935481969	3
2	10628	2.571471481969	2
2	10655	2.571952826609	3
2	10663	2.580488826609	2
2	10707	2.589357505505	3
2	10713	2.589597505505	2
2	10724	2.589667505505	3
2	10744	2.598203505505	2
2	10796	2.607392184401	3
2	10802	2.607632184401	2
2	10813	2.607962184401	3
2	10825	2.616498184401	2
2	10852	2.617039529041	3
2	10860	2.625575529041	2
2	10886	2.625876873681	3
2	10907	2.634412873681	2
2	10963	2.643321552577	3
2	10969	2.643561552577	2
2	11001	2.652158897217	3
2	11007	2.652398897217	2
2	11035	2.661036241857	3
2	11041	2.661276241857	2
2	11052	2.661426241857	3
2	11080	2.669962241857	2
2	11111	2.670383586497	3
2	11119	2.678919586497	2
2	11146	2.679260931137	3
2	11154	2.687796931137	2
2	11202	2.696685610033	3
2	11208	2.696925610033	2
2	11240	2.705622954673	3
2	11246	2.705862954673	2
2	11282	2.714720299313	3
2	11292	2.714960299313	2
2	11303	2.715170299313	3
2	11315	2.723706299313	2
2	11342	2.724267643953	3
2	11354	2.732803643953	2
2	11381	2.733264988593	3
2	11397	2.741800988593	2
2	11449	2.750689667489	3
2	11455	2.750929667489	2
2	11466	2.751039667489	3
2	11478	2.759575667489	2
2	11505	2.759897012129	3
2	11513	2.768433012129	2
2	11540	2.768834356769	3
2	11556	2.777370356769	2
2	11600	2.786499035665	3
2	11606	2.786739035665	2
2	11617	2.787049035665	3
2	11629	2.795585035665	2
2	11656	2.796046380305	3
2	11664	2.804582380305	2
2	11715	2.813451059201	3
2	11721	2.813691059201	2
2	11749	2.822488403841	3
2	11755	2.822728403841	2
2	11787	2.831385748481	3
2	11797	2.831625748481	2
2	11808	2.831955748481	3
2	11820	2.840491748481	2
2	11864	2.849560427377	3
2	11870	2.849800427377	2
2	11881	2.849910427377	3
2	11897	2.858446427377	2
2	11924	2.858847772017	3
2	11932	2.867383772017	2
2	11976	2.876432450913	3
2	11982	2.876672450913	2
2	11993	2.877142450913	3
2	12005	2.885678450913	2
2	12032	2.886079795553	3
2	12040	2.894615795553	2
2	12091	2.903544474449	3
2	12097	2.903784474449	2
2	12108	2.904294474449	3
2	12116	2.912830474449	2
2	12163	2.921699153345	3
2	12169	2.921939153345	2
2	12180	2.922009153345	3
2	12188	2.930545153345	2
2	12231	2.939653832241	3
2	12237	2.939893832241	2
2	12265	2.948631176881	3
2	12271	2.948871176881	2
2	12282	2.949121176881	3
2	12290	2.957657176881	2
2	12317	2.958178521521	3
2	12339	2.966714521521	2
2	12381	2.975951855777	3
2	12387	2.976191855777	2
2	12398	2.976561855777	3
3	0	0	0
3	0	0	0
3	0	0	2
4	0	0	0
4	0	0	0
4	0	0	2
5	0	0	1
5	10	0.022885250545	0
5	20	0.031421250545	1
5	33	0.031432595185	3
5	40	0.031672595185	1
5	50	0.031862595185	3
5	57	0.040398595185	1
5	69	0.040409929441	2
5	76	0.040649929441	1
5	78	0.041019929441	0
5	90	0.049555929441	1
5	103	0.049567274081	3
5	110	0.049807274081	1
5	116	0.049957274081	0
5	140	0.058493274081	1
5	153	0.058504618721	3
5	160	0.058744618721	1
5	166	0.058894618721	0
5	174	0.067430618721	1
5	187	0.067441963361	3
5	194	0.067681963361	1
5	204	0.067871963361	3
5	213	0.076407963361	1
5	225	0.076419297617	2
5	232	0.076659297617	1
5	239	0.077009308001	3
5	252	0.085545308001	1
5	264	0.085556642257	2
5	271	0.085796642257	1
5	274	0.086006642257	0
5	282	0.094542642257	1
5	295	0.094553986897	3
5	302	0.094793986897	1
5	308	0.094903986897	0
5	320	0.103439986897	1
5	333	0.103451331537	3
5	340	0.103691331537	1
5	350	0.103881331537	3
5	359	0.112417331537	1
5	371	0.112428665793	2
5	378	0.112668665793	1
5	381	0.112958665793	0
5	389	0.121494665793	1
5	402	0.121506010433	3
5	409	0.121746010433	1
5	419	0.122136010433	3
5	436	0.130672010433	1
5	448	0.130683344689	2
5	455	0.130923344689	1
5	462	0.130993355073	3
5	475	0.139529355073	1
5	487	0.139540689329	2
5	494	0.139780689329	1
5	497	0.139850689329	0
5	509	0.148386689329	1
5	522	0.148398033969	3
5	529	0.148638033969	1
5	535	0.148888033969	0
5	547	0.157424033969	1
5	560	0.157435378609	3
5	567	0.157675378609	1
5	573	0.157785378609	0
5	585	0.166321378609	1
5	598	0.166332723249	3
5	605	0.166572723249	1
5	615	0.166962723249	3
5	624	0.175498723249	1
5	636	0.175510057505	2
5	643	0.175750057505	1
5	646	0.175820057505	0
5	658	0.184356057505	1
5	671	0.184367402145	3
5	678	0.184607402145	1
5	684	0.184657402145	0
5	696	0.193193402145	1
5	709	0.193204746785	3
5	716	0.193444746785	1
5	722	0.193914746785	0
5	734	0.202450746785	1
5	747	0.202462091425	3
5	754	0.202702091425	1
5	764	0.202772091425	3
5	777	0.211308091425	1
5	789	0.211319425681	2
5	796	0.211559425681	1
5	799	0.211749425681	0
5	811	0.220285425681	1
5	824	0.220296770321	3
5	831	0.220536770321	1
5	841	0.220746770321	3
5	854	0.229282770321	1
5	866	0.229294104577	2
5	873	0.229534104577	1
5	876	0.229624104577	0
5	888	0.238160104577	1
5	901	0.238171449217	3
5	908	0.238411449217	1
5	914	0.238601449217	0
5	922	0.247137449217	1
5	935	0.247148793857	3
5	942	0.247388793857	1
5	948	0.247618793857	0
5	960	0.256154793857	1
5	973	0.256166138497	3
5	980	0.256406138497	1
5	990	0.256576138497	0
5	1011	0.265112138497	1
5	1021	0.265822138497	0
5	1033	0.274358138497	1
5	1046	0.274369483137	3
5	1053	0.274609483137	1
5	1059	0.274939483137	0
5	1067	0.283475483137	1
5	1080	0.283486827777	3
5	1091	0.283726827777	1
5	1097	0.284016827777	0
5	1113	0.292552827777	1
5	1126	0.292564172417	3
5	1133	0.292804172417	1
5	1143	0.292894172417	3
5	1152	0.301430172417	1
5	1164	0.301441506673	2
5	1175	0.301681506673	1
5	1178	0.301771506673	0
5	1190	0.310307506673	1
5	1203	0.310318851313	3
5	1210	0.310558851313	1
5	1216	0.310668851313	0
5	1228	0.319204851313	1
5	1241	0.319216195953	3
5	1248	0.319456195953	1
5	1258	0.319706195953	3
5	1271	0.328242195953	1
5	1283	0.328253530209	2
5	1290	0.328493530209	1
5	1293	0.328743530209	0
5	1305	0.337279530209	1
5	1318	0.337290874849	3
5	1329	0.337530874849	1
5	1339	0.337680874849	3
5	1352	0.346216874849	1
5	1364	0.346228209105	2
5	1371	0.346468209105	1
5	1374	0.346718209105	0
5	1390	0.355254209105	1
5	1403	0.355265553745	3
5	1410	0.355505553745	1
5	1416	0.355615553745	0
5	1428	0.364151553745	1
5	1441	0.364162898385	3
5	1448	0.364402898385	1
5	1454	0.364552898385	0
5	1470	0.373088898385	1
5	1483	0.373100243025	3
5	1490	0.373340243025	1
5	1500	0.373450243025	3
5	1509	0.381986243025	1
5	1521	0.381997577281	2
5	1528	0.382237577281	1
5	1531	0.382307577281	0
5	1539	0.390843577281	1
5	1552	0.390854921921	3
5	1559	0.391094921921	1
5	1569	0.391164921921	3
5	1582	0.399700921921	1
5	1594	0.399712256177	2
5	1601	0.399952256177	1
5	1608	0.400042266561	3
5	1617	0.408578266561	1
5	1629	0.408589600817	2
5	1636	0.408829600817	1
5	1643	0.409079611201	3
5	1652	0.417615611201	1
5	1664	0.417626945457	2
5	1671	0.417866945457	1
5	1674	0.417976945457	0
5	1686	0.426512945457	1
5	1699	0.426524290097	3
5	1706	0.426764290097	1
5	1716	0.427014290097	3
5	1733	0.435550290097	1
5	1745	0.435561624353	2
5	1752	0.435801624353	1
5	1755	0.436071624353	0
5	1779	0.444607624353	1
5	1792	0.444618968993	3
5	1799	0.444858968993	1
5	1809	0.445048968993	3
5	1822	0.453584968993	1
5	1834	0.453596303249	2
5	1841	0.453836303249	1
5	1844	0.454346303249	0
5	1852	0.462882303249	1
5	1865	0.462893647889	3
5	1872	0.463133647889	1
5	1878	0.463243647889	0
5	1886	0.471779647889	1
5	1899	0.471790992529	3
5	1906	0.472030992529	1
5	1916	0.472100992529	3
5	1929	0.480636992529	1
5	1941	0.480648326785	2
5	1948	0.480888326785	1
5	1951	0.481278326785	0
5	1963	0.489814326785	1
5	1976	0.489825671425	3
5	1983	0.490065671425	1
5	1993	0.490175671425	3
5	2006	0.498711671425	1
5	2018	0.498723005681	2
5	2029	0.498963005681	1
5	2036	0.499093016065	3
5	2045	0.507629016065	1
5	2057	0.507640350321	2
5	2064	0.507880350321	1
5	2071	0.508130360705	3
5	2088	0.516666360705	1
5	2100	0.516677694961	2
5	2107	0.516917694961	1
5	2114	0.517007705345	3
5	2123	0.525543705345	1
5	2135	0.525555039601	2
5	2142	0.525795039601	1
5	2145	0.526005039601	0
5	2157	0.534541039601	1
5	2170	0.534552384241	3
5	2177	0.534792384241	1
5	2187	0.535062384241	3
5	2200	0.543598384241	1
5	2212	0.543609718497	2
5	2219	0.543849718497	1
5	2222	0.544119718497	0
5	2234	0.552655718497	1
5	2247	0.552667063137	3
5	2254	0.552907063137	1
5	2264	0.553117063137	3
5	2281	0.561653063137	1
5	2293	0.561664397393	2
5	2300	0.561904397393	1
5	2303	0.562174397393	0
5	2315	0.570710397393	1
5	2328	0.570721742033	3
5	2335	0.570961742033	1
5	2341	0.571051742033	0
5	2353	0.579587742033	1
5	2366	0.579599086673	3
5	2373	0.579839086673	1
5	2379	0.579929086673	0
5	2387	0.588465086673	1
5	2400	0.588476431313	3
5	2407	0.588716431313	1
5	2413	0.588986431313	0
5	2425	0.597522431313	1
5	2438	0.597533775953	3
5	2445	0.597773775953	1
5	2455	0.597903775953	3
5	2468	0.606439775953	1
5	2480	0.606451110209	2
5	2487	0.606691110209	1
5	2490	0.606821110209	0
5	2502	0.615357110209	1
5	2515	0.615368454849	3
5	2522	0.615608454849	1
5	2528	0.615698454849	0
5	2536	0.624234454849	1
5	2549	0.624245799489	3
5	2556	0.624485799489	1
5	2562	0.625015799489	0
5	2570	0.633551799489	1
5	2583	0.633563144129	3
5	2590	0.633803144129	1
5	2600	0.633873144129	3
5	2613	0.642409144129	1
5	2625	0.642420478385	2
5	2632	0.642660478385	1
5	2635	0.643090478385	0
5	2643	0.651626478385	1
5	2656	0.651637823025	3
5	2663	0.651877823025	1
5	2673	0.652127823025	3
5	2682	0.660663823025	1
5	2694	0.660675157281	2
5	2701	0.660915157281	1
5	2708	0.660965167665	3
5	2717	0.669501167665	1
5	2729	0.669512501921	2
5	2736	0.669752501921	1
5	2743	0.669882501921	0
5	2762	0.678418501921	2
5	2763	0.678418512305	1
5	2778	0.678988512305	3
5	2787	0.687524512305	1
5	2799	0.687535846561	2
5	2810	0.687775846561	1
5	2817	0.688325856945	3
5	2826	0.696861856945	1
5	2838	0.696873191201	2
5	2845	0.697113191201	1
5	2852	0.697423201585	3
5	2861	0.705959201585	1
5	2873	0.705970535841	2
5	2880	0.706210535841	1
5	2887	0.706480535841	0
5	2910	0.715016535841	2
5	2911	0.715016546225	1
5	2930	0.715786546225	3
5	2939	0.724322546225	1
5	2951	0.724333880481	2
5	2958	0.724573880481	1
5	2967	0.725183890865	3
5	2978	0.733719890865	1
5	2990	0.733731225121	2
5	2997	0.733971225121	1
5	3005	0.734441235505	3
5	3021	0.742977235505	1
5	3033	0.742988569761	2
5	3040	0.743228569761	1
5	3047	0.743278580145	3
5	3060	0.751814580145	1
5	3072	0.751825914401	2
5	3079	0.752065914401	1
5	3086	0.752655924785	3
5	3099	0.761191924785	1
5	3111	0.761203259041	2
5	3118	0.761443259041	1
5	3121	0.761753259041	0
5	3133	0.770289259041	1
5	3146	0.770300603681	3
5	3153	0.770540603681	1
5	3159	0.770730603681	0
5	3171	0.779266603681	1
5	3184	0.779277948321	3
5	3191	0.779517948321	1
5	3201	0.779587948321	3
5	3214	0.788123948321	1
5	3226	0.788135282577	2
5	3237	0.788375282577	1
5	3240	0.788705282577	0
5	3260	0.797241282577	1
5	3273	0.797252627217	3
5	3280	0.797492627217	1
5	3290	0.797562627217	3
5	3303	0.806098627217	1
5	3315	0.806109961473	2
5	3322	0.806349961473	1
5	3329	0.806879971857	3
5	3338	0.815415971857	1
5	3350	0.815427306113	2
5	3357	0.815667306113	1
5	3360	0.815837306113	0
5	3372	0.824373306113	1
5	3385	0.824384650753	3
5	3392	0.824624650753	1
5	3398	0.825034650753	0
5	3418	0.833570650753	1
5	3431	0.833581995393	3
5	3438	0.833821995393	1
5	3448	0.833971995393	3
5	3457	0.842507995393	1
5	3469	0.842519329649	2
5	3476	0.842759329649	1
5	3479	0.843149329649	0
5	3487	0.851685329649	1
5	3500	0.851696674289	3
5	3507	0.851936674289	1
5	3517	0.852246674289	3
5	3526	0.860782674289	1
5	3538	0.860794008545	2
5	3545	0.861034008545	1
5	3552	0.861184018929	3
5	3561	0.869720018929	1
5	3573	0.869731353185	2
5	3580	0.869971353185	1
5	3583	0.870241353185	0
5	3595	0.878777353185	1
5	3608	0.878788697825	3
5	3615	0.879028697825	1
5	3621	0.879298697825	0
5	3637	0.887834697825	1
5	3650	0.887846042465	3
5	3657	0.888086042465	1
5	3667	0.888156042465	3
5	3684	0.896692042465	1
5	3696	0.896703376721	2
5	3703	0.896943376721	1
5	3710	0.897153387105	3
5	3719	0.905689387105	1
5	3731	0.905700721361	2
5	3738	0.905940721361	1
5	3745	0.906030721361	0
5	3760	0.914566721361	2
5	3761	0.914566731745	1
5	3772	0.915296721361	0
5	3788	0.923832721361	1
5	3801	0.923844066001	3
5	3808	0.924084066001	1
5	3818	0.924294066001	3
5	3827	0.932830066001	1
5	3839	0.932841400257	2
5	3846	0.933081400257	1
5	3849	0.933251400257	0
5	3857	0.941787400257	1
5	3870	0.941798744897	3
5	3877	0.942038744897	1
5	3887	0.942368744897	3
5	3908	0.950904744897	1
5	3920	0.950916079153	2
5	3927	0.951156079153	1
5	3930	0.951346079153	0
5	3938	0.959882079153	1
5	3951	0.959893423793	3
5	3958	0.960133423793	1
5	3968	0.960223423793	3
5	3977	0.968759423793	1
5	3989	0.968770758049	2
5	3996	0.969010758049	1
5	4003	0.969120768433	3
5	4012	0.977656768433	1
5	4024	0.977668102689	2
5	4031	0.977908102689	1
5	4038	0.978238113073	3
5	4047	0.986774113073	1
5	4059	0.986785447329	2
5	4066	0.987025447329	1
5	4069	0.987155447329	0
5	4081	0.995691447329	1
5	4094	0.995702791969	3
5	4101	0.995942791969	1
5	4107	0.996052791969	0
5	4115	1.004588791969	1
5	4128	1.004600136609	3
5	4135	1.004840136609	1
5	4145	1.005270136609	3
5	4154	1.013806136609	1
5	4166	1.013817470865	2
5	4173	1.014057470865	1
5	4180	1.014287481249	3
5	4197	1.022823481249	1
5	4209	1.022834815505	2
5	4216	1.023074815505	1
5	4219	1.023184815505	0
5	4227	1.031720815505	1
5	4240	1.031732160145	3
5	4247	1.031972160145	1
5	4257	1.032102160145	3
5	4270	1.040638160145	1
5	4282	1.040649494401	2
5	4289	1.040889494401	1
5	4296	1.041179504785	3
5	4305	1.049715504785	1
5	4317	1.049726839041	2
5	4324	1.049966839041	1
5	4331	1.050056849425	3
5	4344	1.058592849425	1
5	4356	1.058604183681	2
5	4363	1.058844183681	1
5	4370	1.058914194065	3
5	4391	1.067450194065	1
5	4403	1.067461528321	2
5	4410	1.067701528321	1
5	4412	1.067951528321	0
5	4420	1.076487528321	1
5	4433	1.076498872961	3
5	4440	1.076738872961	1
5	4450	1.076828872961	3
5	4463	1.085364872961	1
5	4475	1.085376207217	2
5	4482	1.085616207217	1
5	4484	1.085726207217	0
5	4496	1.094262207217	1
5	4509	1.094273551857	3
5	4516	1.094513551857	1
5	4522	1.094723551857	0
5	4530	1.103259551857	1
5	4543	1.103270896497	3
5	4550	1.103510896497	1
5	4560	1.104000896497	3
5	4569	1.112536896497	1
5	4581	1.112548230753	2
5	4588	1.112788230753	1
5	4595	1.112858241137	3
5	4608	1.121394241137	1
5	4620	1.121405575393	2
5	4627	1.121645575393	1
5	4629	1.121815575393	0
5	4641	1.130351575393	1
5	4654	1.130362920033	3
5	4661	1.130602920033	1
5	4667	1.130812920033	0
5	4683	1.139348920033	1
5	4696	1.139360264673	3
5	4703	1.139600264673	1
5	4709	1.139710264673	0
5	4717	1.148246264673	1
5	4730	1.148257609313	3
5	4737	1.148497609313	1
5	4743	1.148687609313	0
5	4751	1.157223609313	1
5	4764	1.157234953953	3
5	4771	1.157474953953	1
5	4781	1.157704953953	3
5	4790	1.166240953953	1
5	4802	1.166252288209	2
5	4809	1.166492288209	1
5	4816	1.166602298593	3
5	4829	1.175138298593	1
5	4841	1.175149632849	2
5	4848	1.175389632849	1
5	4851	1.175759632849	0
5	4863	1.184295632849	1
5	4876	1.184306977489	3
5	4883	1.184546977489	1
5	4893	1.184856977489	3
5	4902	1.193392977489	1
5	4914	1.193404311745	2
5	4921	1.193644311745	1
5	4924	1.193794311745	0
5	4932	1.202330311745	1
5	4945	1.202341656385	3
5	4952	1.202581656385	1
5	4962	1.202871656385	3
5	4971	1.211407656385	1
5	4983	1.211418990641	2
5	4990	1.211658990641	1
5	4993	1.212048990641	0
5	5001	1.220584990641	1
5	5014	1.220596335281	3
5	5021	1.220836335281	1
5	5031	1.220946335281	3
5	5048	1.229482335281	1
5	5060	1.229493669537	2
5	5067	1.229733669537	1
5	5074	1.230023679921	3
5	5083	1.238559679921	1
5	5095	1.238571014177	2
5	5102	1.238811014177	1
5	5105	1.239141014177	0
5	5113	1.247677014177	1
5	5126	1.247688358817	3
5	5133	1.247928358817	1
5	5143	1.248118358817	3
5	5152	1.256654358817	1
5	5164	1.256665693073	2
5	5171	1.256905693073	1
5	5178	1.256995703457	3
5	5195	1.265531703457	1
5	5207	1.265543037713	2
5	5218	1.265783037713	1
5	5220	1.266233037713	0
5	5236	1.274769037713	1
5	5249	1.274780382353	3
5	5256	1.275020382353	1
5	5266	1.275210382353	3
5	5283	1.283746382353	1
5	5295	1.283757716609	2
5	5302	1.283997716609	1
5	5304	1.284267716609	0
5	5324	1.292803716609	1
5	5337	1.292815061249	3
5	5344	1.293055061249	1
5	5350	1.293105061249	0
5	5362	1.301641061249	1
5	5375	1.301652405889	3
5	5382	1.301892405889	1
5	5392	1.302302405889	3
5	5405	1.310838405889	1
5	5417	1.310849740145	2
5	5424	1.311089740145	1
5	5431	1.311319750529	3
5	5440	1.319855750529	1
5	5452	1.319867084785	2
5	5459	1.320107084785	1
5	5461	1.320177084785	0
5	5477	1.328713084785	1
5	5490	1.328724429425	3
5	5497	1.328964429425	1
5	5503	1.329214429425	0
5	5511	1.337750429425	1
5	5524	1.337761774065	3
5	5531	1.338001774065	1
5	5537	1.338131774065	0
5	5553	1.346667774065	1
5	5566	1.346679118705	3
5	5573	1.346919118705	1
5	5583	1.347009118705	3
5	5592	1.355545118705	1
5	5604	1.355556452961	2
5	5611	1.355796452961	1
5	5614	1.355866452961	0
5	5622	1.364402452961	1
5	5635	1.364413797601	3
5	5642	1.364653797601	1
5	5648	1.364863797601	0
5	5660	1.373399797601	1
5	5673	1.373411142241	3
5	5680	1.373651142241	1
5	5690	1.373901142241	3
5	5703	1.382437142241	1
5	5715	1.382448476497	2
5	5722	1.382688476497	1
5	5725	1.383118476497	0
5	5737	1.391654476497	1
5	5750	1.391665821137	3
5	5757	1.391905821137	1
5	5767	1.392035821137	3
5	5776	1.400571821137	1
5	5788	1.400583155393	2
5	5795	1.400823155393	1
5	5798	1.400953155393	0
5	5806	1.409489155393	1
5	5819	1.409500500033	3
5	5826	1.409740500033	1
5	5836	1.409850500033	3
5	5849	1.418386500033	1
5	5861	1.418397834289	2
5	5868	1.418637834289	1
5	5875	1.419027844673	3
5	5884	1.427563844673	1
5	5896	1.427575178929	2
5	5903	1.427815178929	1
5	5906	1.427925178929	0
5	5914	1.436461178929	1
5	5927	1.436472523569	3
5	5934	1.436712523569	1
5	5940	1.437162523569	0
5	5952	1.445698523569	1
5	5965	1.445709868209	3
5	5972	1.445949868209	1
5	5982	1.446019868209	3
5	5995	1.454555868209	1
5	6007	1.454567202465	2
5	6014	1.454807202465	1
5	6017	1.455057202465	0
5	6025	1.463593202465	1
5	6038	1.463604547105	3
5	6045	1.463844547105	1
5	6051	1.463894547105	0
5	6063	1.472430547105	1
5	6076	1.472441891745	3
5	6083	1.472681891745	1
5	6093	1.473031891745	3
5	6102	1.481567891745	1
5	6114	1.481579226001	2
5	6121	1.481819226001	1
5	6124	1.482009226001	0
5	6132	1.490545226001	1
5	6145	1.490556570641	3
5	6152	1.490796570641	1
5	6158	1.491246570641	0
5	6170	1.499782570641	1
5	6183	1.499793915281	3
5	6190	1.500033915281	1
5	6200	1.500103915281	3
5	6213	1.508639915281	1
5	6225	1.508651249537	2
5	6232	1.508891249537	1
5	6239	1.509321259921	3
5	6248	1.517857259921	1
5	6260	1.517868594177	2
5	6267	1.518108594177	1
5	6270	1.518198594177	0
5	6282	1.526734594177	1
5	6295	1.526745938817	3
5	6302	1.526985938817	1
5	6312	1.527135938817	3
5	6321	1.535671938817	1
5	6333	1.535683273073	2
5	6340	1.535923273073	1
5	6347	1.536073283457	3
5	6368	1.544609283457	1
5	6380	1.544620617713	2
5	6387	1.544860617713	1
5	6390	1.544970617713	0
5	6398	1.553506617713	1
5	6411	1.553517962353	3
5	6418	1.553757962353	1
5	6428	1.553827962353	3
5	6441	1.562363962353	1
5	6453	1.562375296609	2
5	6460	1.562615296609	1
5	6463	1.562785296609	0
5	6471	1.571321296609	1
5	6484	1.571332641249	3
5	6491	1.571572641249	1
5	6497	1.571822641249	0
5	6513	1.580358641249	1
5	6526	1.580369985889	3
5	6533	1.580609985889	1
5	6543	1.580859985889	3
5	6552	1.589395985889	1
5	6564	1.589407320145	2
5	6571	1.589647320145	1
5	6578	1.589757330529	3
5	6591	1.598293330529	1
5	6603	1.598304664785	2
5	6610	1.598544664785	1
5	6613	1.598714664785	0
5	6621	1.607250664785	1
5	6634	1.607262009425	3
5	6641	1.607502009425	1
5	6647	1.607592009425	0
5	6659	1.616128009425	1
5	6672	1.616139354065	3
5	6679	1.616379354065	1
5	6689	1.616689354065	3
5	6706	1.625225354065	1
5	6718	1.625236688321	2
5	6725	1.625476688321	1
5	6728	1.625686688321	0
5	6736	1.634222688321	1
5	6749	1.634234032961	3
5	6756	1.634474032961	1
5	6762	1.634884032961	0
5	6770	1.643420032961	1
5	6783	1.643431377601	3
5	6790	1.643671377601	1
5	6800	1.643761377601	3
5	6809	1.652297377601	1
5	6821	1.652308711857	2
5	6828	1.652548711857	1
5	6831	1.652818711857	0
5	6843	1.661354711857	1
5	6856	1.661366056497	3
5	6863	1.661606056497	1
5	6869	1.661856056497	0
5	6877	1.670392056497	1
5	6890	1.670403401137	3
5	6897	1.670643401137	1
5	6907	1.670733401137	3
5	6916	1.679269401137	1
5	6928	1.679280735393	2
5	6935	1.679520735393	1
5	6942	1.679890745777	3
5	6955	1.688426745777	1
5	6967	1.688438080033	2
5	6974	1.688678080033	1
5	6977	1.688788080033	0
5	6985	1.697324080033	1
5	6998	1.697335424673	3
5	7005	1.697575424673	1
5	7015	1.697885424673	3
5	7032	1.706421424673	1
5	7044	1.706432758929	2
5	7051	1.706672758929	1
5	7062	1.706922769313	3
5	7079	1.715458769313	1
5	7091	1.715470103569	2
5	7098	1.715710103569	1
5	7101	1.715820103569	0
5	7109	1.724356103569	1
5	7122	1.724367448209	3
5	7129	1.724607448209	1
5	7139	1.724737448209	3
5	7148	1.733273448209	1
5	7160	1.733284782465	2
5	7167	1.733524782465	1
5	7170	1.733654782465	0
5	7182	1.742190782465	1
5	7195	1.742202127105	3
5	7202	1.742442127105	1
5	7212	1.742672127105	3
5	7221	1.751208127105	1
5	7233	1.751219461361	2
5	7240	1.751459461361	1
5	7243	1.751649461361	0
5	7251	1.760185461361	1
5	7264	1.760196806001	3
5	7271	1.760436806001	1
5	7281	1.760826806001	3
5	7290	1.769362806001	1
5	7302	1.769374140257	2
5	7309	1.769614140257	1
5	7312	1.769764140257	0
5	7320	1.778300140257	1
5	7333	1.778311484897	3
5	7340	1.778551484897	1
5	7346	1.778901484897	0
5	7354	1.787437484897	1
5	7367	1.787448829537	3
5	7374	1.787688829537	1
5	7384	1.787818829537	3
5	7397	1.796354829537	1
5	7409	1.796366163793	2
5	7416	1.796606163793	1
5	7423	1.796776174177	3
5	7436	1.805312174177	1
5	7448	1.805323508433	2
5	7455	1.805563508433	1
5	7458	1.805913508433	0
5	7466	1.814449508433	1
5	7479	1.814460853073	3
5	7486	1.814700853073	1
5	7496	1.814850853073	3
5	7505	1.823386853073	1
5	7517	1.823398187329	2
5	7524	1.823638187329	1
5	7531	1.823728197713	3
5	7544	1.832264197713	1
5	7556	1.832275531969	2
5	7563	1.832515531969	1
5	7570	1.832925531969	0
5	7578	1.841461531969	1
5	7591	1.841472876609	3
5	7598	1.841712876609	1
5	7608	1.841882876609	3
5	7617	1.850418876609	1
5	7629	1.850430210865	2
5	7636	1.850670210865	1
5	7639	1.851060210865	0
5	7647	1.859596210865	1
5	7660	1.859607555505	3
5	7667	1.859847555505	1
5	7673	1.859977555505	0
5	7681	1.868513555505	1
5	7694	1.868524900145	3
5	7705	1.868764900145	1
5	7715	1.868874900145	3
5	7728	1.877410900145	1
5	7740	1.877422234401	2
5	7747	1.877662234401	1
5	7750	1.877992234401	0
5	7758	1.886528234401	1
5	7771	1.886539579041	3
5	7778	1.886779579041	1
5	7788	1.886989579041	3
5	7797	1.895525579041	1
5	7809	1.895536913297	2
5	7816	1.895776913297	1
5	7819	1.896166913297	0
5	7835	1.904702913297	1
5	7848	1.904714257937	3
5	7855	1.904954257937	1
5	7865	1.905064257937	3
5	7874	1.913600257937	1
5	7886	1.913611592193	2
5	7893	1.913851592193	1
5	7896	1.914381592193	0
5	7908	1.922917592193	1
5	7921	1.922928936833	3
5	7928	1.923168936833	1
5	7938	1.923318936833	3
5	7947	1.931854936833	1
5	7959	1.931866271089	2
5	7966	1.932106271089	1
5	7969	1.932476271089	0
5	7977	1.941012271089	1
5	7990	1.941023615729	3
5	7997	1.941263615729	1
5	8007	1.941453615729	3
5	8020	1.949989615729	1
5	8032	1.950000949985	2
5	8039	1.950240949985	1
5	8046	1.950430960369	3
5	8067	1.958966960369	1
5	8079	1.958978294625	2
5	8086	1.959218294625	1
5	8089	1.959368294625	0
5	8101	1.967904294625	1
5	8114	1.967915639265	3
5	8121	1.968155639265	1
5	8131	1.968585639265	3
5	8140	1.977121639265	1
5	8152	1.977132973521	2
5	8159	1.977372973521	1
5	8162	1.977442973521	0
5	8174	1.985978973521	1
5	8187	1.985990318161	3
5	8194	1.986230318161	1
5	8204	1.986680318161	3
5	8217	1.995216318161	1
5	8229	1.995227652417	2
5	8236	1.995467652417	1
5	8239	1.995717652417	0
5	8247	2.004253652417	1
5	8260	2.004264997057	3
5	8267	2.004504997057	1
5	8273	2.004634997057	0
5	8281	2.013170997057	1
5	8294	2.013182341697	3
5	8301	2.013422341697	1
5	8307	2.013552341697	0
5	8315	2.022088341697	1
5	8328	2.022099686337	3
5	8335	2.022339686337	1
5	8345	2.022429686337	3
5	8354	2.030965686337	1
5	8366	2.030977020593	2
5	8373	2.031217020593	1
5	8376	2.031547020593	0
5	8384	2.040083020593	1
5	8397	2.040094365233	3
5	8408	2.040334365233	1
5	8418	2.040424365233	3
5	8427	2.048960365233	1
5	8439	2.048971699489	2
5	8446	2.049211699489	1
5	8453	2.049421709873	3
5	8462	2.057957709873	1
5	8474	2.057969044129	2
5	8481	2.058209044129	1
5	8484	2.058319044129	0
5	8492	2.066855044129	1
5	8505	2.066866388769	3
5	8512	2.067106388769	1
5	8522	2.067696388769	0
5	8539	2.076232388769	1
5	8555	2.077442388769	3
5	8570	2.085978388769	1
5	8582	2.085989723025	2
5	8589	2.086229723025	1
5	8598	2.086679723025	0
5	8604	2.095215723025	1
5	8617	2.095227067665	3
5	8624	2.095467067665	1
5	8630	2.095577067665	0
5	8638	2.104113067665	1
5	8651	2.104124412305	3
5	8658	2.104364412305	1
5	8668	2.104514412305	3
5	8677	2.113050412305	1
5	8689	2.113061746561	2
5	8696	2.113301746561	1
5	8703	2.113591756945	3
5	8716	2.122127756945	1
5	8728	2.122139091201	2
5	8735	2.122379091201	1
5	8738	2.122469091201	0
5	8746	2.131005091201	1
5	8759	2.131016435841	3
5	8766	2.131256435841	1
5	8772	2.131346435841	0
5	8784	2.139882435841	1
5	8797	2.139893780481	3
5	8804	2.140133780481	1
5	8810	2.140243780481	0
5	8818	2.148779780481	1
5	8831	2.148791125121	3
5	8838	2.149031125121	1
5	8848	2.149141125121	3
5	8869	2.157677125121	1
5	8881	2.157688459377	2
5	8888	2.157928459377	1
5	8891	2.158158459377	0
5	8903	2.166694459377	1
5	8916	2.166705804017	3
5	8923	2.166945804017	1
5	8929	2.167055804017	0
5	8941	2.175591804017	1
5	8954	2.175603148657	3
5	8961	2.175843148657	1
5	8967	2.175953148657	0
5	8979	2.184489148657	1
5	8992	2.184500493297	3
5	8999	2.184740493297	1
5	9005	2.184950493297	0
5	9021	2.193486493297	1
5	9034	2.193497837937	3
5	9041	2.193737837937	1
5	9051	2.193807837937	3
5	9068	2.202343837937	1
5	9080	2.202355172193	2
5	9087	2.202595172193	1
5	9094	2.202825182577	3
5	9107	2.211361182577	1
5	9119	2.211372516833	2
5	9126	2.211612516833	1
5	9133	2.211682527217	3
5	9146	2.220218527217	1
5	9158	2.220229861473	2
5	9165	2.220469861473	1
5	9168	2.220819861473	0
5	9184	2.229355861473	1
5	9197	2.229367206113	3
5	9204	2.229607206113	1
5	9210	2.229717206113	0
5	9222	2.238253206113	1
5	9235	2.238264550753	3
5	9242	2.238504550753	1
5	9252	2.238794550753	0
5	9277	2.247330550753	1
5	9291	2.248060550753	3
5	9300	2.256596550753	1
5	9312	2.256607885009	2
5	9319	2.256847885009	1
5	9326	2.256897895393	3
5	9339	2.265433895393	1
5	9351	2.265445229649	2
5	9358	2.265685229649	1
5	9365	2.265955240033	3
5	9378	2.274491240033	1
5	9390	2.274502574289	2
5	9397	2.274742574289	1
5	9400	2.274812574289	0
5	9416	2.283348574289	1
5	9429	2.283359918929	3
5	9436	2.283599918929	1
5	9442	2.283809918929	0
5	9450	2.292345918929	1
5	9463	2.292357263569	3
5	9470	2.292597263569	1
5	9480	2.292847263569	3
5	9489	2.301383263569	1
5	9501	2.301394597825	2
5	9508	2.301634597825	1
5	9511	2.301704597825	0
5	9523	2.310240597825	1
5	9536	2.310251942465	3
5	9543	2.310491942465	1
5	9553	2.310801942465	3
5	9566	2.319337942465	1
5	9578	2.319349276721	2
5	9585	2.319589276721	1
5	9588	2.319759276721	0
5	9604	2.328295276721	1
5	9617	2.328306621361	3
5	9624	2.328546621361	1
5	9630	2.328596621361	0
5	9642	2.337132621361	1
5	9655	2.337143966001	3
5	9662	2.337383966001	1
5	9672	2.337513966001	3
5	9685	2.346049966001	1
5	9697	2.346061300257	2
5	9704	2.346301300257	1
5	9711	2.346471310641	3
5	9720	2.355007310641	1
5	9732	2.355018644897	2
5	9739	2.355258644897	1
5	9746	2.355328655281	3
5	9755	2.363864655281	1
5	9767	2.363875989537	2
5	9774	2.364115989537	1
5	9777	2.364225989537	0
5	9785	2.372761989537	1
5	9798	2.372773334177	3
5	9805	2.373013334177	1
5	9815	2.373243334177	3
5	9824	2.381779334177	1
5	9836	2.381790668433	2
5	9843	2.382030668433	1
5	9846	2.382440668433	0
5	9858	2.390976668433	1
5	9871	2.390988013073	3
5	9878	2.391228013073	1
5	9888	2.391418013073	3
5	9901	2.399954013073	1
5	9913	2.399965347329	2
5	9920	2.400205347329	1
5	9923	2.400295347329	0
5	9935	2.408831347329	1
5	9948	2.408842691969	3
5	9955	2.409082691969	1
5	9961	2.409192691969	0
5	9977	2.417728691969	1
5	9990	2.417740036609	3
5	9997	2.417980036609	1
5	10003	2.418330036609	0
5	10023	2.426866036609	1
5	10036	2.426877381249	3
5	10043	2.427117381249	1
5	10053	2.427347381249	3
5	10066	2.435883381249	1
5	10078	2.435894715505	2
5	10085	2.436134715505	1
5	10088	2.436364715505	0
5	10104	2.444900715505	1
5	10117	2.444912060145	3
5	10124	2.445152060145	1
5	10134	2.445282060145	3
5	10143	2.453818060145	1
5	10155	2.453829394401	2
5	10162	2.454069394401	1
5	10165	2.454559394401	0
5	10173	2.463095394401	1
5	10186	2.463106739041	3
5	10193	2.463346739041	1
5	10203	2.463416739041	3
5	10216	2.471952739041	1
5	10228	2.471964073297	2
5	10235	2.472204073297	1
5	10242	2.472494083681	3
5	10251	2.481030083681	1
5	10263	2.481041417937	2
5	10270	2.481281417937	1
5	10273	2.481591417937	0
5	10281	2.490127417937	1
5	10294	2.490138762577	3
5	10301	2.490378762577	1
5	10311	2.490468762577	0
5	10332	2.499004762577	1
5	10346	2.500114762577	3
5	10363	2.508650762577	1
5	10375	2.508662096833	2
5	10382	2.508902096833	1
5	10387	2.509112096833	0
5	10393	2.517648096833	1
5	10406	2.517659441473	3
5	10413	2.517899441473	1
5	10419	2.518109441473	0
5	10443	2.526645441473	1
5	10456	2.526656786113	3
5	10463	2.526896786113	1
5	10473	2.527146786113	3
5	10486	2.535682786113	1
5	10498	2.535694120369	2
5	10505	2.535934120369	1
5	10512	2.536164130753	3
5	10521	2.544700130753	1
5	10533	2.544711465009	2
5	10540	2.544951465009	1
5	10543	2.545041465009	0
5	10551	2.553577465009	1
5	10564	2.553588809649	3
5	10571	2.553828809649	1
5	10581	2.553958809649	3
5	10594	2.562494809649	1
5	10606	2.562506143905	2
5	10613	2.562746143905	1
5	10620	2.562936154289	3
5	10633	2.571472154289	1
5	10645	2.571483488545	2
5	10652	2.571723488545	1
5	10659	2.571953498929	3
5	10668	2.580489498929	1
5	10680	2.580500833185	2
5	10687	2.580740833185	1
5	10690	2.580810833185	0
5	10698	2.589346833185	1
5	10711	2.589358177825	3
5	10718	2.589598177825	1
5	10728	2.589668177825	3
5	10749	2.598204177825	1
5	10761	2.598215512081	2
5	10768	2.598455512081	1
5	10771	2.598845512081	0
5	10787	2.607381512081	1
5	10800	2.607392856721	3
5	10807	2.607632856721	1
5	10817	2.607962856721	3
5	10830	2.616498856721	1
5	10842	2.616510190977	2
5	10849	2.616750190977	1
5	10856	2.617040201361	3
5	10865	2.625576201361	1
5	10877	2.625587535617	2
5	10884	2.625827535617	1
5	10891	2.625877546001	3
5	10912	2.634413546001	1
5	10924	2.634424880257	2
5	10931	2.634664880257	1
5	10934	2.634774880257	0
5	10954	2.643310880257	1
5	10967	2.643322224897	3
5	10974	2.643562224897	1
5	10980	2.643612224897	0
5	10992	2.652148224897	1
5	11005	2.652159569537	3
5	11012	2.652399569537	1
5	11018	2.652489569537	0
5	11026	2.661025569537	1
5	11039	2.661036914177	3
5	11046	2.661276914177	1
5	11056	2.661426914177	3
5	11085	2.669962914177	1
5	11097	2.669974248433	2
5	11108	2.670214248433	1
5	11115	2.670384258817	3
5	11124	2.678920258817	1
5	11136	2.678931593073	2
5	11143	2.679171593073	1
5	11150	2.679261603457	3
5	11159	2.687797603457	1
5	11171	2.687808937713	2
5	11178	2.688048937713	1
5	11181	2.688138937713	0
5	11193	2.696674937713	1
5	11206	2.696686282353	3
5	11213	2.696926282353	1
5	11219	2.697076282353	0
5	11231	2.705612282353	1
5	11244	2.705623626993	3
5	11251	2.705863626993	1
5	11257	2.706173626993	0
5	11273	2.714709626993	1
5	11286	2.714720971633	3
5	11297	2.714960971633	1
5	11307	2.715170971633	3
5	11320	2.723706971633	1
5	11332	2.723718305889	2
5	11339	2.723958305889	1
5	11346	2.724268316273	3
5	11359	2.732804316273	1
5	11371	2.732815650529	2
5	11378	2.733055650529	1
5	11385	2.733265660913	3
5	11402	2.741801660913	1
5	11414	2.741812995169	2
5	11421	2.742052995169	1
5	11424	2.742142995169	0
5	11440	2.750678995169	1
5	11453	2.750690339809	3
5	11460	2.750930339809	1
5	11470	2.751040339809	3
5	11483	2.759576339809	1
5	11495	2.759587674065	2
5	11502	2.759827674065	1
5	11509	2.759897684449	3
5	11518	2.768433684449	1
5	11530	2.768445018705	2
5	11537	2.768685018705	1
5	11544	2.768835029089	3
5	11561	2.777371029089	1
5	11573	2.777382363345	2
5	11580	2.777622363345	1
5	11583	2.777952363345	0
5	11591	2.786488363345	1
5	11604	2.786499707985	3
5	11611	2.786739707985	1
5	11621	2.787049707985	3
5	11634	2.795585707985	1
5	11646	2.795597042241	2
5	11653	2.795837042241	1
5	11660	2.796047052625	3
5	11669	2.804583052625	1
5	11681	2.804594386881	2
5	11688	2.804834386881	1
5	11690	2.804904386881	0
5	11706	2.813440386881	1
5	11719	2.813451731521	3
5	11726	2.813691731521	1
5	11732	2.813941731521	0
5	11740	2.822477731521	1
5	11753	2.822489076161	3
5	11760	2.822729076161	1
5	11766	2.822839076161	0
5	11778	2.831375076161	1
5	11791	2.831386420801	3
5	11802	2.831626420801	1
5	11812	2.831956420801	3
5	11825	2.840492420801	1
5	11837	2.840503755057	2
5	11844	2.840743755057	1
5	11847	2.841013755057	0
5	11855	2.849549755057	1
5	11868	2.849561099697	3
5	11875	2.849801099697	1
5	11885	2.849911099697	3
5	11902	2.858447099697	1
5	11914	2.858458433953	2
5	11921	2.858698433953	1
5	11928	2.858848444337	3
5	11937	2.867384444337	1
5	11949	2.867395778593	2
5	11956	2.867635778593	1
5	11959	2.867885778593	0
5	11967	2.876421778593	1
5	11980	2.876433123233	3
5	11987	2.876673123233	1
5	11997	2.877143123233	3
5	12010	2.885679123233	1
5	12022	2.885690457489	2
5	12029	2.885930457489	1
5	12036	2.886080467873	3
5	12045	2.894616467873	1
5	12057	2.894627802129	2
5	12064	2.894867802129	1
5	12066	2.894997802129	0
5	12082	2.903533802129	1
5	12095	2.903545146769	3
5	12102	2.903785146769	1
5	12112	2.904295146769	3
5	12121	2.912831146769	1
5	12133	2.912842481025	2
5	12140	2.913082481025	1
5	12142	2.913152481025	0
5	12154	2.921688481025	1
5	12167	2.921699825665	3
5	12174	2.921939825665	1
5	12184	2.922009825665	3
5	12193	2.930545825665	1
5	12205	2.930557159921	2
5	12212	2.930797159921	1
5	12214	2.931107159921	0
5	12222	2.939643159921	1
5	12235	2.939654504561	3
5	12242	2.939894504561	1
5	12248	2.940084504561	0
5	12256	2.948620504561	1
5	12269	2.948631849201	3
5	12276	2.948871849201	1
5	12286	2.949121849201	3
5	12295	2.957657849201	1
5	12307	2.957669183457	2
5	12314	2.957909183457	1
5	12321	2.958179183457	0
5	12344	2.966715183457	2
5	12345	2.966715193841	1
5	12360	2.967405183457	0
5	12372	2.975941183457	1
5	12385	2.975952528097	3
5	12392	2.976192528097	1
5	12402	2.976562528097	3
6	0	0	1
6	15	0.022886584801	2
6	28	0.031422584801	1
6	34	0.031432595185	3
6	41	0.031672595185	1
6	51	0.031862595185	3
6	58	0.040398595185	1
6	64	0.040408595185	0
6	70	0.040648595185	1
6	83	0.041021263697	2
6	98	0.049557263697	1
6	104	0.049567274081	3
6	111	0.049807274081	1
6	121	0.049958608337	2
6	148	0.058494608337	1
6	154	0.058504618721	3
6	161	0.058744618721	1
6	171	0.058895952977	2
6	182	0.067431952977	1
6	188	0.067441963361	3
6	195	0.067681963361	1
6	205	0.067871963361	3
6	214	0.076407963361	1
6	220	0.076417963361	0
6	226	0.076657963361	1
6	240	0.077009308001	3
6	253	0.085545308001	1
6	259	0.085555308001	0
6	265	0.085795308001	1
6	279	0.086007976513	2
6	290	0.094543976513	1
6	296	0.094553986897	3
6	303	0.094793986897	1
6	313	0.094905321153	2
6	328	0.103441321153	1
6	334	0.103451331537	3
6	341	0.103691331537	1
6	351	0.103881331537	3
6	360	0.112417331537	1
6	366	0.112427331537	0
6	372	0.112667331537	1
6	386	0.112960000049	2
6	397	0.121496000049	1
6	403	0.121506010433	3
6	410	0.121746010433	1
6	420	0.122136010433	3
6	437	0.130672010433	1
6	443	0.130682010433	0
6	449	0.130922010433	1
6	463	0.130993355073	3
6	476	0.139529355073	1
6	482	0.139539355073	0
6	488	0.139779355073	1
6	502	0.139852023585	2
6	517	0.148388023585	1
6	523	0.148398033969	3
6	530	0.148638033969	1
6	540	0.148889368225	2
6	555	0.157425368225	1
6	561	0.157435378609	3
6	568	0.157675378609	1
6	578	0.157786712865	2
6	593	0.166322712865	1
6	599	0.166332723249	3
6	606	0.166572723249	1
6	616	0.166962723249	3
6	625	0.175498723249	1
6	631	0.175508723249	0
6	637	0.175748723249	1
6	651	0.175821391761	2
6	666	0.184357391761	1
6	672	0.184367402145	3
6	679	0.184607402145	1
6	689	0.184658736401	2
6	704	0.193194736401	1
6	710	0.193204746785	3
6	717	0.193444746785	1
6	727	0.193916081041	2
6	742	0.202452081041	1
6	748	0.202462091425	3
6	755	0.202702091425	1
6	765	0.202772091425	3
6	778	0.211308091425	1
6	784	0.211318091425	0
6	790	0.211558091425	1
6	804	0.211750759937	2
6	819	0.220286759937	1
6	825	0.220296770321	3
6	832	0.220536770321	1
6	842	0.220746770321	3
6	855	0.229282770321	1
6	861	0.229292770321	0
6	867	0.229532770321	1
6	881	0.229625438833	2
6	896	0.238161438833	1
6	902	0.238171449217	3
6	909	0.238411449217	1
6	919	0.238602783473	2
6	930	0.247138783473	1
6	936	0.247148793857	3
6	943	0.247388793857	1
6	953	0.247620128113	2
6	968	0.256156128113	1
6	974	0.256166138497	3
6	981	0.256406138497	1
6	992	0.256576138497	3
6	1010	0.265112138497	2
6	1016	0.265113472753	1
6	1026	0.265823472753	2
6	1041	0.274359472753	1
6	1047	0.274369483137	3
6	1054	0.274609483137	1
6	1064	0.274940817393	2
6	1075	0.283476817393	1
6	1081	0.283486827777	3
6	1092	0.283726827777	1
6	1102	0.284018162033	2
6	1121	0.292554162033	1
6	1127	0.292564172417	3
6	1134	0.292804172417	1
6	1144	0.292894172417	3
6	1153	0.301430172417	1
6	1159	0.301440172417	0
6	1169	0.301680172417	1
6	1183	0.301772840929	2
6	1198	0.310308840929	1
6	1204	0.310318851313	3
6	1211	0.310558851313	1
6	1221	0.310670185569	2
6	1236	0.319206185569	1
6	1242	0.319216195953	3
6	1249	0.319456195953	1
6	1259	0.319706195953	3
6	1272	0.328242195953	1
6	1278	0.328252195953	0
6	1284	0.328492195953	1
6	1298	0.328744864465	2
6	1313	0.337280864465	1
6	1319	0.337290874849	3
6	1330	0.337530874849	1
6	1340	0.337680874849	3
6	1353	0.346216874849	1
6	1359	0.346226874849	0
6	1365	0.346466874849	1
6	1379	0.346719543361	2
6	1398	0.355255543361	1
6	1404	0.355265553745	3
6	1411	0.355505553745	1
6	1421	0.355616888001	2
6	1436	0.364152888001	1
6	1442	0.364162898385	3
6	1449	0.364402898385	1
6	1459	0.364554232641	2
6	1478	0.373090232641	1
6	1484	0.373100243025	3
6	1491	0.373340243025	1
6	1501	0.373450243025	3
6	1510	0.381986243025	1
6	1516	0.381996243025	0
6	1522	0.382236243025	1
6	1536	0.382308911537	2
6	1547	0.390844911537	1
6	1553	0.390854921921	3
6	1560	0.391094921921	1
6	1570	0.391164921921	3
6	1583	0.399700921921	1
6	1589	0.399710921921	0
6	1595	0.399950921921	1
6	1609	0.400042266561	3
6	1618	0.408578266561	1
6	1624	0.408588266561	0
6	1630	0.408828266561	1
6	1644	0.409079611201	3
6	1653	0.417615611201	1
6	1659	0.417625611201	0
6	1665	0.417865611201	1
6	1679	0.417978279713	2
6	1694	0.426514279713	1
6	1700	0.426524290097	3
6	1707	0.426764290097	1
6	1717	0.427014290097	3
6	1734	0.435550290097	1
6	1740	0.435560290097	0
6	1746	0.435800290097	1
6	1760	0.436072958609	2
6	1787	0.444608958609	1
6	1793	0.444618968993	3
6	1800	0.444858968993	1
6	1810	0.445048968993	3
6	1823	0.453584968993	1
6	1829	0.453594968993	0
6	1835	0.453834968993	1
6	1849	0.454347637505	2
6	1860	0.462883637505	1
6	1866	0.462893647889	3
6	1873	0.463133647889	1
6	1883	0.463244982145	2
6	1894	0.471780982145	1
6	1900	0.471790992529	3
6	1907	0.472030992529	1
6	1917	0.472100992529	3
6	1930	0.480636992529	1
6	1936	0.480646992529	0
6	1942	0.480886992529	1
6	1956	0.481279661041	2
6	1971	0.489815661041	1
6	1977	0.489825671425	3
6	1984	0.490065671425	1
6	1994	0.490175671425	3
6	2007	0.498711671425	1
6	2013	0.498721671425	0
6	2023	0.498961671425	1
6	2037	0.499093016065	3
6	2046	0.507629016065	1
6	2052	0.507639016065	0
6	2058	0.507879016065	1
6	2072	0.508130360705	3
6	2089	0.516666360705	1
6	2095	0.516676360705	0
6	2101	0.516916360705	1
6	2115	0.517007705345	3
6	2124	0.525543705345	1
6	2130	0.525553705345	0
6	2136	0.525793705345	1
6	2150	0.526006373857	2
6	2165	0.534542373857	1
6	2171	0.534552384241	3
6	2178	0.534792384241	1
6	2188	0.535062384241	3
6	2201	0.543598384241	1
6	2207	0.543608384241	0
6	2213	0.543848384241	1
6	2227	0.544121052753	2
6	2242	0.552657052753	1
6	2248	0.552667063137	3
6	2255	0.552907063137	1
6	2265	0.553117063137	3
6	2282	0.561653063137	1
6	2288	0.561663063137	0
6	2294	0.561903063137	1
6	2308	0.562175731649	2
6	2323	0.570711731649	1
6	2329	0.570721742033	3
6	2336	0.570961742033	1
6	2346	0.571053076289	2
6	2361	0.579589076289	1
6	2367	0.579599086673	3
6	2374	0.579839086673	1
6	2384	0.579930420929	2
6	2395	0.588466420929	1
6	2401	0.588476431313	3
6	2408	0.588716431313	1
6	2418	0.588987765569	2
6	2433	0.597523765569	1
6	2439	0.597533775953	3
6	2446	0.597773775953	1
6	2456	0.597903775953	3
6	2469	0.606439775953	1
6	2475	0.606449775953	0
6	2481	0.606689775953	1
6	2495	0.606822444465	2
6	2510	0.615358444465	1
6	2516	0.615368454849	3
6	2523	0.615608454849	1
6	2533	0.615699789105	2
6	2544	0.624235789105	1
6	2550	0.624245799489	3
6	2557	0.624485799489	1
6	2567	0.625017133745	2
6	2578	0.633553133745	1
6	2584	0.633563144129	3
6	2591	0.633803144129	1
6	2601	0.633873144129	3
6	2614	0.642409144129	1
6	2620	0.642419144129	0
6	2626	0.642659144129	1
6	2640	0.643091812641	2
6	2651	0.651627812641	1
6	2657	0.651637823025	3
6	2664	0.651877823025	1
6	2674	0.652127823025	3
6	2683	0.660663823025	1
6	2689	0.660673823025	0
6	2695	0.660913823025	1
6	2709	0.660965167665	3
6	2718	0.669501167665	1
6	2724	0.669511167665	0
6	2730	0.669751167665	1
6	2746	0.669882512305	3
6	2764	0.678418512305	2
6	2769	0.678419836177	1
6	2779	0.678988512305	3
6	2788	0.687524512305	1
6	2794	0.687534512305	0
6	2804	0.687774512305	1
6	2818	0.688325856945	3
6	2827	0.696861856945	1
6	2833	0.696871856945	0
6	2839	0.697111856945	1
6	2853	0.697423201585	3
6	2862	0.705959201585	1
6	2868	0.705969201585	0
6	2874	0.706209201585	1
6	2890	0.706480546225	3
6	2912	0.715016546225	2
6	2917	0.715017870097	1
6	2931	0.715786546225	3
6	2940	0.724322546225	1
6	2946	0.724332546225	0
6	2952	0.724572546225	1
6	2968	0.725183890865	3
6	2979	0.733719890865	1
6	2985	0.733729890865	0
6	2991	0.733969890865	1
6	3006	0.734441235505	3
6	3022	0.742977235505	1
6	3028	0.742987235505	0
6	3034	0.743227235505	1
6	3048	0.743278580145	3
6	3061	0.751814580145	1
6	3067	0.751824580145	0
6	3073	0.752064580145	1
6	3087	0.752655924785	3
[...]
29	4469	1.085364872961	56
29	4575	1.112536896497	57
29	4614	1.121394241137	58
29	4796	1.166240953953	59
29	4835	1.175138298593	60
29	4908	1.193392977489	61
29	4977	1.211407656385	62
29	5054	1.229482335281	63
29	5089	1.238559679921	64
29	5158	1.256654358817	65
29	5201	1.265531703457	66
29	5289	1.283746382353	67
29	5411	1.310838405889	68
29	5446	1.319855750529	69
29	5598	1.355545118705	70
29	5709	1.382437142241	71
29	5782	1.400571821137	72
29	5855	1.418386500033	73
29	5890	1.427563844673	74
29	6001	1.454555868209	75
29	6108	1.481567891745	76
29	6219	1.508639915281	77
29	6254	1.517857259921	78
29	6327	1.535671938817	79
29	6374	1.544609283457	80
29	6447	1.562363962353	81
29	6558	1.589395985889	82
29	6597	1.598293330529	83
29	6712	1.625225354065	84
29	6815	1.652297377601	85
29	6922	1.679269401137	86
29	6961	1.688426745777	87
29	7038	1.706421424673	88
29	7085	1.715458769313	89
29	7154	1.733273448209	90
29	7227	1.751208127105	91
29	7296	1.769362806001	92
29	7403	1.796354829537	93
29	7442	1.805312174177	94
29	7511	1.823386853073	95
29	7550	1.832264197713	96
29	7623	1.850418876609	97
29	7734	1.877410900145	98
29	7803	1.895525579041	99
29	7880	1.913600257937	100
29	7953	1.931854936833	101
29	8026	1.949989615729	102
29	8073	1.958966960369	103
29	8146	1.977121639265	104
29	8223	1.995216318161	105
29	8360	2.030965686337	106
29	8433	2.048960365233	107
29	8468	2.057957709873	108
29	8576	2.085978388769	109
29	8683	2.113050412305	110
29	8722	2.122127756945	111
29	8875	2.157677125121	112
29	9074	2.202343837937	113
29	9113	2.211361182577	114
29	9152	2.220218527217	115
29	9306	2.256596550753	116
29	9345	2.265433895393	117
29	9384	2.274491240033	118
29	9495	2.301383263569	119
29	9572	2.319337942465	120
29	9691	2.346049966001	121
29	9726	2.355007310641	122
29	9761	2.363864655281	123
29	9830	2.381779334177	124
29	9907	2.399954013073	125
29	10072	2.435883381249	126
29	10149	2.453818060145	127
29	10222	2.471952739041	128
29	10257	2.481030083681	129
29	10369	2.508650762577	130
29	10492	2.535682786113	131
29	10527	2.544700130753	132
29	10600	2.562494809649	133
29	10639	2.571472154289	134
29	10674	2.580489498929	135
29	10755	2.598204177825	136
29	10836	2.616498856721	137
29	10871	2.625576201361	138
29	10918	2.634413546001	139
29	11091	2.669962914177	140
29	11130	2.678920258817	141
29	11165	2.687797603457	142
29	11326	2.723706971633	143
29	11365	2.732804316273	144
29	11408	2.741801660913	145
29	11489	2.759576339809	146
29	11524	2.768433684449	147
29	11567	2.777371029089	148
29	11640	2.795585707985	149
29	11675	2.804583052625	150
29	11831	2.840492420801	151
29	11908	2.858447099697	152
29	11943	2.867384444337	153
29	12016	2.885679123233	154
29	12051	2.894616467873	155
29	12127	2.912831146769	156
29	12199	2.930545825665	157
29	12301	2.957657849201	158
30	64	0.040408595185	1
30	65	0.040408595185	2
30	70	0.040648595185	1
30	70	0.040648595185	0
30	220	0.076417963361	1
30	221	0.076417963361	2
30	226	0.076657963361	1
30	226	0.076657963361	0
30	259	0.085555308001	1
30	260	0.085555308001	2
30	265	0.085795308001	1
30	265	0.085795308001	0
30	366	0.112427331537	1
30	367	0.112427331537	2
30	372	0.112667331537	1
30	372	0.112667331537	0
30	443	0.130682010433	1
30	444	0.130682010433	2
30	449	0.130922010433	1
30	449	0.130922010433	0
30	482	0.139539355073	1
30	483	0.139539355073	2
30	488	0.139779355073	1
30	488	0.139779355073	0
30	631	0.175508723249	1
30	632	0.175508723249	2
30	637	0.175748723249	1
30	637	0.175748723249	0
30	784	0.211318091425	1
30	785	0.211318091425	2
30	790	0.211558091425	1
30	790	0.211558091425	0
30	861	0.229292770321	1
30	862	0.229292770321	2
30	867	0.229532770321	1
30	867	0.229532770321	0
30	1159	0.301440172417	1
30	1160	0.301440172417	2
30	1169	0.301680172417	1
30	1169	0.301680172417	0
30	1278	0.328252195953	1
30	1279	0.328252195953	2
30	1284	0.328492195953	1
30	1284	0.328492195953	0
30	1359	0.346226874849	1
30	1360	0.346226874849	2
30	1365	0.346466874849	1
30	1365	0.346466874849	0
30	1516	0.381996243025	1
30	1517	0.381996243025	2
30	1522	0.382236243025	1
30	1522	0.382236243025	0
30	1589	0.399710921921	1
30	1590	0.399710921921	2
30	1595	0.399950921921	1
30	1595	0.399950921921	0
30	1624	0.408588266561	1
30	1625	0.408588266561	2
30	1630	0.408828266561	1
30	1630	0.408828266561	0
30	1659	0.417625611201	1
30	1660	0.417625611201	2
30	1665	0.417865611201	1
30	1665	0.417865611201	0
30	1740	0.435560290097	1
30	1741	0.435560290097	2
30	1746	0.435800290097	1
30	1746	0.435800290097	0
30	1829	0.453594968993	1
30	1830	0.453594968993	2
30	1835	0.453834968993	1
30	1835	0.453834968993	0
30	1936	0.480646992529	1
30	1937	0.480646992529	2
30	1942	0.480886992529	1
30	1942	0.480886992529	0
30	2013	0.498721671425	1
30	2014	0.498721671425	2
30	2023	0.498961671425	1
30	2023	0.498961671425	0
30	2052	0.507639016065	1
30	2053	0.507639016065	2
30	2058	0.507879016065	1
30	2058	0.507879016065	0
30	2095	0.516676360705	1
30	2096	0.516676360705	2
30	2101	0.516916360705	1
30	2101	0.516916360705	0
30	2130	0.525553705345	1
30	2131	0.525553705345	2
30	2136	0.525793705345	1
30	2136	0.525793705345	0
30	2207	0.543608384241	1
30	2208	0.543608384241	2
30	2213	0.543848384241	1
30	2213	0.543848384241	0
30	2288	0.561663063137	1
30	2289	0.561663063137	2
30	2294	0.561903063137	1
30	2294	0.561903063137	0
30	2475	0.606449775953	1
30	2476	0.606449775953	2
30	2481	0.606689775953	1
30	2481	0.606689775953	0
30	2620	0.642419144129	1
30	2621	0.642419144129	2
30	2626	0.642659144129	1
30	2626	0.642659144129	0
30	2689	0.660673823025	1
30	2690	0.660673823025	2
30	2695	0.660913823025	1
30	2695	0.660913823025	0
30	2724	0.669511167665	1
30	2725	0.669511167665	2
30	2730	0.669751167665	1
30	2730	0.669751167665	0
30	2794	0.687534512305	1
30	2795	0.687534512305	2
30	2804	0.687774512305	1
30	2804	0.687774512305	0
30	2833	0.696871856945	1
30	2834	0.696871856945	2
30	2839	0.697111856945	1
30	2839	0.697111856945	0
30	2868	0.705969201585	1
30	2869	0.705969201585	2
30	2874	0.706209201585	1
30	2874	0.706209201585	0
30	2946	0.724332546225	1
30	2947	0.724332546225	2
30	2952	0.724572546225	1
30	2952	0.724572546225	0
30	2985	0.733729890865	1
30	2986	0.733729890865	2
30	2991	0.733969890865	1
30	2991	0.733969890865	0
30	3028	0.742987235505	1
30	3029	0.742987235505	2
30	3034	0.743227235505	1
30	3034	0.743227235505	0
30	3067	0.751824580145	1
30	3068	0.751824580145	2
30	3073	0.752064580145	1
30	3073	0.752064580145	0
30	3106	0.761201924785	1
30	3107	0.761201924785	2
30	3112	0.761441924785	1
30	3112	0.761441924785	0
30	3221	0.788133948321	1
30	3222	0.788133948321	2
30	3231	0.788373948321	1
30	3231	0.788373948321	0
30	3310	0.806108627217	1
30	3311	0.806108627217	2
30	3316	0.806348627217	1
30	3316	0.806348627217	0
30	3345	0.815425971857	1
30	3346	0.815425971857	2
30	3351	0.815665971857	1
30	3351	0.815665971857	0
30	3464	0.842517995393	1
30	3465	0.842517995393	2
30	3470	0.842757995393	1
30	3470	0.842757995393	0
30	3533	0.860792674289	1
30	3534	0.860792674289	2
30	3539	0.861032674289	1
30	3539	0.861032674289	0
30	3568	0.869730018929	1
30	3569	0.869730018929	2
30	3574	0.869970018929	1
30	3574	0.869970018929	0
30	3691	0.896702042465	1
30	3692	0.896702042465	2
30	3697	0.896942042465	1
30	3697	0.896942042465	0
30	3726	0.905699387105	1
30	3727	0.905699387105	2
30	3732	0.905939387105	1
30	3732	0.905939387105	0
30	3834	0.932840066001	1
30	3835	0.932840066001	2
30	3840	0.933080066001	1
30	3840	0.933080066001	0
30	3915	0.950914744897	1
30	3916	0.950914744897	2
30	3921	0.951154744897	1
30	3921	0.951154744897	0
30	3984	0.968769423793	1
30	3985	0.968769423793	2
30	3990	0.969009423793	1
30	3990	0.969009423793	0
30	4019	0.977666768433	1
30	4020	0.977666768433	2
30	4025	0.977906768433	1
30	4025	0.977906768433	0
30	4054	0.986784113073	1
30	4055	0.986784113073	2
30	4060	0.987024113073	1
30	4060	0.987024113073	0
30	4161	1.013816136609	1
30	4162	1.013816136609	2
30	4167	1.014056136609	1
30	4167	1.014056136609	0
30	4204	1.022833481249	1
30	4205	1.022833481249	2
30	4210	1.023073481249	1
30	4210	1.023073481249	0
30	4277	1.040648160145	1
30	4278	1.040648160145	2
30	4283	1.040888160145	1
30	4283	1.040888160145	0
30	4312	1.049725504785	1
30	4313	1.049725504785	2
30	4318	1.049965504785	1
30	4318	1.049965504785	0
30	4351	1.058602849425	1
30	4352	1.058602849425	2
30	4357	1.058842849425	1
30	4357	1.058842849425	0
30	4398	1.067460194065	1
30	4399	1.067460194065	2
30	4404	1.067700194065	1
30	4404	1.067700194065	0
30	4470	1.085374872961	1
30	4471	1.085374872961	2
30	4476	1.085614872961	1
30	4476	1.085614872961	0
30	4576	1.112546896497	1
30	4577	1.112546896497	2
30	4582	1.112786896497	1
30	4582	1.112786896497	0
30	4615	1.121404241137	1
30	4616	1.121404241137	2
30	4621	1.121644241137	1
30	4621	1.121644241137	0
30	4797	1.166250953953	1
30	4798	1.166250953953	2
30	4803	1.166490953953	1
30	4803	1.166490953953	0
30	4836	1.175148298593	1
30	4837	1.175148298593	2
30	4842	1.175388298593	1
30	4842	1.175388298593	0
30	4909	1.193402977489	1
30	4910	1.193402977489	2
30	4915	1.193642977489	1
30	4915	1.193642977489	0
30	4978	1.211417656385	1
30	4979	1.211417656385	2
30	4984	1.211657656385	1
30	4984	1.211657656385	0
30	5055	1.229492335281	1
30	5056	1.229492335281	2
30	5061	1.229732335281	1
30	5061	1.229732335281	0
30	5090	1.238569679921	1
30	5091	1.238569679921	2
30	5096	1.238809679921	1
30	5096	1.238809679921	0
30	5159	1.256664358817	1
30	5160	1.256664358817	2
30	5165	1.256904358817	1
30	5165	1.256904358817	0
30	5202	1.265541703457	1
30	5203	1.265541703457	2
30	5212	1.265781703457	1
30	5212	1.265781703457	0
30	5290	1.283756382353	1
30	5291	1.283756382353	2
30	5296	1.283996382353	1
30	5296	1.283996382353	0
30	5412	1.310848405889	1
30	5413	1.310848405889	2
30	5418	1.311088405889	1
30	5418	1.311088405889	0
30	5447	1.319865750529	1
30	5448	1.319865750529	2
30	5453	1.320105750529	1
30	5453	1.320105750529	0
30	5599	1.355555118705	1
30	5600	1.355555118705	2
30	5605	1.355795118705	1
30	5605	1.355795118705	0
30	5710	1.382447142241	1
30	5711	1.382447142241	2
30	5716	1.382687142241	1
30	5716	1.382687142241	0
30	5783	1.400581821137	1
30	5784	1.400581821137	2
30	5789	1.400821821137	1
30	5789	1.400821821137	0
30	5856	1.418396500033	1
30	5857	1.418396500033	2
30	5862	1.418636500033	1
30	5862	1.418636500033	0
30	5891	1.427573844673	1
30	5892	1.427573844673	2
30	5897	1.427813844673	1
30	5897	1.427813844673	0
30	6002	1.454565868209	1
30	6003	1.454565868209	2
30	6008	1.454805868209	1
30	6008	1.454805868209	0
30	6109	1.481577891745	1
30	6110	1.481577891745	2
30	6115	1.481817891745	1
30	6115	1.481817891745	0
30	6220	1.508649915281	1
30	6221	1.508649915281	2
30	6226	1.508889915281	1
30	6226	1.508889915281	0
30	6255	1.517867259921	1
30	6256	1.517867259921	2
30	6261	1.518107259921	1
30	6261	1.518107259921	0
30	6328	1.535681938817	1
30	6329	1.535681938817	2
30	6334	1.535921938817	1
30	6334	1.535921938817	0
30	6375	1.544619283457	1
30	6376	1.544619283457	2
30	6381	1.544859283457	1
30	6381	1.544859283457	0
30	6448	1.562373962353	1
30	6449	1.562373962353	2
30	6454	1.562613962353	1
30	6454	1.562613962353	0
30	6559	1.589405985889	1
30	6560	1.589405985889	2
30	6565	1.589645985889	1
30	6565	1.589645985889	0
30	6598	1.598303330529	1
30	6599	1.598303330529	2
30	6604	1.598543330529	1
30	6604	1.598543330529	0
30	6713	1.625235354065	1
30	6714	1.625235354065	2
30	6719	1.625475354065	1
30	6719	1.625475354065	0
30	6816	1.652307377601	1
30	6817	1.652307377601	2
30	6822	1.652547377601	1
30	6822	1.652547377601	0
30	6923	1.679279401137	1
30	6924	1.679279401137	2
30	6929	1.679519401137	1
30	6929	1.679519401137	0
30	6962	1.688436745777	1
30	6963	1.688436745777	2
30	6968	1.688676745777	1
30	6968	1.688676745777	0
30	7039	1.706431424673	1
30	7040	1.706431424673	2
30	7045	1.706671424673	1
30	7045	1.706671424673	0
30	7086	1.715468769313	1
30	7087	1.715468769313	2
30	7092	1.715708769313	1
30	7092	1.715708769313	0
30	7155	1.733283448209	1
30	7156	1.733283448209	2
30	7161	1.733523448209	1
30	7161	1.733523448209	0
30	7228	1.751218127105	1
30	7229	1.751218127105	2
30	7234	1.751458127105	1
30	7234	1.751458127105	0
30	7297	1.769372806001	1
30	7298	1.769372806001	2
30	7303	1.769612806001	1
30	7303	1.769612806001	0
30	7404	1.796364829537	1
30	7405	1.796364829537	2
30	7410	1.796604829537	1
30	7410	1.796604829537	0
30	7443	1.805322174177	1
30	7444	1.805322174177	2
30	7449	1.805562174177	1
30	7449	1.805562174177	0
30	7512	1.823396853073	1
30	7513	1.823396853073	2
30	7518	1.823636853073	1
30	7518	1.823636853073	0
30	7551	1.832274197713	1
30	7552	1.832274197713	2
30	7557	1.832514197713	1
30	7557	1.832514197713	0
30	7624	1.850428876609	1
30	7625	1.850428876609	2
30	7630	1.850668876609	1
30	7630	1.850668876609	0
30	7735	1.877420900145	1
30	7736	1.877420900145	2
30	7741	1.877660900145	1
30	7741	1.877660900145	0
30	7804	1.895535579041	1
30	7805	1.895535579041	2
30	7810	1.895775579041	1
30	7810	1.895775579041	0
30	7881	1.913610257937	1
30	7882	1.913610257937	2
30	7887	1.913850257937	1
30	7887	1.913850257937	0
30	7954	1.931864936833	1
30	7955	1.931864936833	2
30	7960	1.932104936833	1
30	7960	1.932104936833	0
30	8027	1.949999615729	1
30	8028	1.949999615729	2
30	8033	1.950239615729	1
30	8033	1.950239615729	0
30	8074	1.958976960369	1
30	8075	1.958976960369	2
30	8080	1.959216960369	1
30	8080	1.959216960369	0
30	8147	1.977131639265	1
30	8148	1.977131639265	2
30	8153	1.977371639265	1
30	8153	1.977371639265	0
30	8224	1.995226318161	1
30	8225	1.995226318161	2
30	8230	1.995466318161	1
30	8230	1.995466318161	0
30	8361	2.030975686337	1
30	8362	2.030975686337	2
30	8367	2.031215686337	1
30	8367	2.031215686337	0
30	8434	2.048970365233	1
30	8435	2.048970365233	2
30	8440	2.049210365233	1
30	8440	2.049210365233	0
30	8469	2.057967709873	1
30	8470	2.057967709873	2
30	8475	2.058207709873	1
30	8475	2.058207709873	0
30	8577	2.085988388769	1
30	8578	2.085988388769	2
30	8583	2.086228388769	1
30	8583	2.086228388769	0
30	8684	2.113060412305	1
30	8685	2.113060412305	2
30	8690	2.113300412305	1
30	8690	2.113300412305	0
30	8723	2.122137756945	1
30	8724	2.122137756945	2
30	8729	2.122377756945	1
30	8729	2.122377756945	0
30	8876	2.157687125121	1
30	8877	2.157687125121	2
30	8882	2.157927125121	1
30	8882	2.157927125121	0
30	9075	2.202353837937	1
30	9076	2.202353837937	2
30	9081	2.202593837937	1
30	9081	2.202593837937	0
30	9114	2.211371182577	1
30	9115	2.211371182577	2
30	9120	2.211611182577	1
30	9120	2.211611182577	0
30	9153	2.220228527217	1
30	9154	2.220228527217	2
30	9159	2.220468527217	1
30	9159	2.220468527217	0
30	9307	2.256606550753	1
30	9308	2.256606550753	2
30	9313	2.256846550753	1
30	9313	2.256846550753	0
30	9346	2.265443895393	1
30	9347	2.265443895393	2
30	9352	2.265683895393	1
30	9352	2.265683895393	0
30	9385	2.274501240033	1
30	9386	2.274501240033	2
30	9391	2.274741240033	1
30	9391	2.274741240033	0
30	9496	2.301393263569	1
30	9497	2.301393263569	2
30	9502	2.301633263569	1
30	9502	2.301633263569	0
30	9573	2.319347942465	1
30	9574	2.319347942465	2
30	9579	2.319587942465	1
30	9579	2.319587942465	0
30	9692	2.346059966001	1
30	9693	2.346059966001	2
30	9698	2.346299966001	1
30	9698	2.346299966001	0
30	9727	2.355017310641	1
30	9728	2.355017310641	2
30	9733	2.355257310641	1
30	9733	2.355257310641	0
30	9762	2.363874655281	1
30	9763	2.363874655281	2
30	9768	2.364114655281	1
30	9768	2.364114655281	0
30	9831	2.381789334177	1
30	9832	2.381789334177	2
30	9837	2.382029334177	1
30	9837	2.382029334177	0
30	9908	2.399964013073	1
30	9909	2.399964013073	2
30	9914	2.400204013073	1
30	9914	2.400204013073	0
30	10073	2.435893381249	1
30	10074	2.435893381249	2
30	10079	2.436133381249	1
30	10079	2.436133381249	0
30	10150	2.453828060145	1
30	10151	2.453828060145	2
30	10156	2.454068060145	1
30	10156	2.454068060145	0
30	10223	2.471962739041	1
30	10224	2.471962739041	2
30	10229	2.472202739041	1
30	10229	2.472202739041	0
30	10258	2.481040083681	1
30	10259	2.481040083681	2
30	10264	2.481280083681	1
30	10264	2.481280083681	0
30	10370	2.508660762577	1
30	10371	2.508660762577	2
30	10376	2.508900762577	1
30	10376	2.508900762577	0
30	10493	2.535692786113	1
30	10494	2.535692786113	2
30	10499	2.535932786113	1
30	10499	2.535932786113	0
30	10528	2.544710130753	1
30	10529	2.544710130753	2
30	10534	2.544950130753	1
30	10534	2.544950130753	0
30	10601	2.562504809649	1
30	10602	2.562504809649	2
30	10607	2.562744809649	1
30	10607	2.562744809649	0
30	10640	2.571482154289	1
30	10641	2.571482154289	2
30	10646	2.571722154289	1
30	10646	2.571722154289	0
30	10675	2.580499498929	1
30	10676	2.580499498929	2
30	10681	2.580739498929	1
30	10681	2.580739498929	0
30	10756	2.598214177825	1
30	10757	2.598214177825	2
30	10762	2.598454177825	1
30	10762	2.598454177825	0
30	10837	2.616508856721	1
30	10838	2.616508856721	2
30	10843	2.616748856721	1
30	10843	2.616748856721	0
30	10872	2.625586201361	1
30	10873	2.625586201361	2
30	10878	2.625826201361	1
30	10878	2.625826201361	0
30	10919	2.634423546001	1
30	10920	2.634423546001	2
30	10925	2.634663546001	1
30	10925	2.634663546001	0
30	11092	2.669972914177	1
30	11093	2.669972914177	2
30	11102	2.670212914177	1
30	11102	2.670212914177	0
30	11131	2.678930258817	1
30	11132	2.678930258817	2
30	11137	2.679170258817	1
30	11137	2.679170258817	0
30	11166	2.687807603457	1
30	11167	2.687807603457	2
30	11172	2.688047603457	1
30	11172	2.688047603457	0
30	11327	2.723716971633	1
30	11328	2.723716971633	2
30	11333	2.723956971633	1
30	11333	2.723956971633	0
30	11366	2.732814316273	1
30	11367	2.732814316273	2
30	11372	2.733054316273	1
30	11372	2.733054316273	0
30	11409	2.741811660913	1
30	11410	2.741811660913	2
30	11415	2.742051660913	1
30	11415	2.742051660913	0
30	11490	2.759586339809	1
30	11491	2.759586339809	2
30	11496	2.759826339809	1
30	11496	2.759826339809	0
30	11525	2.768443684449	1
30	11526	2.768443684449	2
30	11531	2.768683684449	1
30	11531	2.768683684449	0
30	11568	2.777381029089	1
30	11569	2.777381029089	2
30	11574	2.777621029089	1
30	11574	2.777621029089	0
30	11641	2.795595707985	1
30	11642	2.795595707985	2
30	11647	2.795835707985	1
30	11647	2.795835707985	0
30	11676	2.804593052625	1
30	11677	2.804593052625	2
30	11682	2.804833052625	1
30	11682	2.804833052625	0
30	11832	2.840502420801	1
30	11833	2.840502420801	2
30	11838	2.840742420801	1
30	11838	2.840742420801	0
30	11909	2.858457099697	1
30	11910	2.858457099697	2
30	11915	2.858697099697	1
30	11915	2.858697099697	0
30	11944	2.867394444337	1
30	11945	2.867394444337	2
30	11950	2.867634444337	1
30	11950	2.867634444337	0
30	12017	2.885689123233	1
30	12018	2.885689123233	2
30	12023	2.885929123233	1
30	12023	2.885929123233	0
30	12052	2.894626467873	1
30	12053	2.894626467873	2
30	12058	2.894866467873	1
30	12058	2.894866467873	0
30	12128	2.912841146769	1
30	12129	2.912841146769	2
30	12134	2.913081146769	1
30	12134	2.913081146769	0
30	12200	2.930555825665	1
30	12201	2.930555825665	2
30	12206	2.930795825665	1
30	12206	2.930795825665	0
30	12302	2.957667849201	1
30	12303	2.957667849201	2
30	12308	2.957907849201	1
30	12308	2.957907849201	0
31	365	0.1	240000
31	783	0.2	320000
31	1158	0.3	160000
31	1623	0.4	400000
31	2051	0.5	480000
31	2474	0.6	400000
31	2867	0.7	480000
31	3309	0.8	560000
31	3725	0.9	480000
31	4160	1	480000
31	4575	1.1	560000
31	4977	1.2	400000
31	5411	1.3	480000
31	5782	1.4	320000
31	6219	1.5	400000
31	6712	1.6	560000
31	7038	1.7	320000
31	7442	1.8	480000
31	7880	1.9	480000
31	8360	2	480000
31	8683	2.1	320000
31	9074	2.2	240000
31	9495	2.3	480000
31	10072	2.4	560000
31	10369	2.5	320000
31	10836	2.6	560000
31	11326	2.7	480000
31	11675	2.8	560000
31	12127	2.9	480000
32	1007	0.265112067518	1055
32	2760	0.678418441326	1055
32	2908	0.715016475246	1055
32	3758	0.914566660766	1055
32	8535	2.07623231779	1055
32	9273	2.247330479774	1055
32	10328	2.499004691598	1055
32	12342	2.966715122862	1055
33	1008	0.265112067518	1055
33	2761	0.678418441326	1055
33	2909	0.715016475246	1055
33	3759	0.914566660766	1055
33	8536	2.07623231779	1055
33	9274	2.247330479774	1055
33	10329	2.499004691598	1055
33	12343	2.966715122862	1055
34	1012	0.265112138497	1055
34	2765	0.678418512305	1055
34	2913	0.715016546225	1055
34	3763	0.914566731745	1055
34	8540	2.076232388769	1055
34	9278	2.247330550753	1055
34	10333	2.499004762577	1055
34	12347	2.966715193841	1055

