version 2
run Wireless08-0-20200528-19:40:20-88444
attr configname Wireless08
attr datetime 20200528-19:40:20
attr experiment Wireless08
attr inifile omnetpp.ini
attr iterationvars ""
attr iterationvarsf ""
attr measurement ""
attr network WirelessB
attr processid 88444
attr repetition 0
attr replication #0
attr resultdir results
attr runnumber 0
attr seedset 0
param *.host*.wlan[0].radio.energyConsumer.typename "\"StateBasedEpEnergyConsumer\""
param *.host*.wlan[0].radio.energyConsumer.offPowerConsumption 0mW
param *.host*.wlan[0].radio.energyConsumer.sleepPowerConsumption 1mW
param *.host*.wlan[0].radio.energyConsumer.switchingPowerConsumption 1mW
param *.host*.wlan[0].radio.energyConsumer.receiverIdlePowerConsumption 2mW
param *.host*.wlan[0].radio.energyConsumer.receiverBusyPowerConsumption 5mW
param *.host*.wlan[0].radio.energyConsumer.receiverReceivingPowerConsumption 10mW
param *.host*.wlan[0].radio.energyConsumer.transmitterIdlePowerConsumption 2mW
param *.host*.wlan[0].radio.energyConsumer.transmitterTransmittingPowerConsumption 100mW
param *.host*.energyStorage.typename "\"IdealEpEnergyStorage\""
param *.host*.wlan[0].radio.displayInterferenceRange false
param *.hostR1.wlan[0].radio.displayCommunicationRange false
param *.visualizer.mediumVisualizer.displaySignals false
param *.host*.wlan[0].mac.useAck true
param *.host*.wlan[0].typename "\"WirelessInterface\""
param *.host*.wlan[0].radio.typename "\"UnitDiskRadio\""
param *.host*.wlan[0].mac.typename "\"CsmaCaMac\""
param *.host*.wlan[0].mac.ackTimeout 300us
param *.host*.wlan[0].radio.receiver.ignoreInterference false
param *.host*.wlan[0].radio.transmitter.interferenceRange 500m
param *.hostA.wlan[0].radio.displayInterferenceRange true
param *.visualizer.dataLinkVisualizer.packetFilter "\"\""
param *.host*.forwarding true
param *.configurator.config "xml(\"<config><interface hosts='**' address='10.0.0.x' netmask='255.255.255.0'/><autoroute metric='errorRate'/></config>\")"
param *.configurator.optimizeRoutes false
param *.host*.ipv4.routingTable.netmaskRoutes "\"\""
param *.visualizer.physicalLinkVisualizer.displayLinks true
param *.visualizer.dataLinkVisualizer.displayLinks true
param *.visualizer.networkRouteVisualizer.displayRoutes true
param *.visualizer.*LinkVisualizer.lineShift 0
param *.visualizer.networkRouteVisualizer.lineShift 0
param *.visualizer.networkRouteVisualizer.packetFilter "\"UDPData*\""
param *.host*.wlan[0].radio.transmitter.communicationRange 250m
param *.hostR1.wlan[0].radio.displayCommunicationRange true
param *.hostA.wlan[0].radio.displayCommunicationRange true
param *.visualizer.sceneVisualizer.descriptionFigure "\"title\""
param *.visualizer.mediumVisualizer.displaySignals true
param *.visualizer.physicalLinkVisualizer.displayLinks true
param *.visualizer.physicalLinkVisualizer.packetFilter "\"UDPData*\""
param *.host*.ipv4.arp.typename "\"GlobalArp\""
param *.hostA.numApps 1
param *.hostA.app[0].typename "\"UdpBasicApp\""
param *.hostA.app[0].destAddresses "\"hostB\""
param *.hostA.app[0].destPort 5000
param *.hostA.app[0].messageLength 1000B
param *.hostA.app[0].sendInterval exponential(12ms)
param *.hostA.app[0].packetName "\"UDPData\""
param *.hostB.numApps 1
param *.hostB.app[0].typename "\"UdpSink\""
param *.hostB.app[0].localPort 5000
param *.host*.wlan[0].typename "\"AckingWirelessInterface\""
param *.host*.wlan[0].mac.useAck false
param *.host*.wlan[0].mac.fullDuplex false
param *.host*.wlan[0].radio.transmitter.communicationRange 500m
param *.host*.wlan[0].radio.receiver.ignoreInterference true
param *.host*.wlan[0].mac.headerLength 23B
param *.host*.**.bitrate 1Mbps

vector 0 WirelessB.hostA.energyStorage powerConsumption:vector ETV
attr interpolationmode sample-hold
attr source powerConsumptionChanged
attr title "Power consumption, vector"
vector 1 WirelessB.hostB.energyStorage powerConsumption:vector ETV
attr interpolationmode sample-hold
attr source powerConsumptionChanged
attr title "Power consumption, vector"
vector 2 WirelessB.hostR1.energyStorage powerConsumption:vector ETV
attr interpolationmode sample-hold
attr source powerConsumptionChanged
attr title "Power consumption, vector"
vector 3 WirelessB.hostR2.energyStorage powerConsumption:vector ETV
attr interpolationmode sample-hold
attr source powerConsumptionChanged
attr title "Power consumption, vector"
vector 4 WirelessB.hostR3.energyStorage powerConsumption:vector ETV
attr interpolationmode sample-hold
attr source powerConsumptionChanged
attr title "Power consumption, vector"
vector 5 WirelessB.hostA.wlan[0].radio radioMode:vector ETV
attr interpolationmode sample-hold
attr source radioModeChanged
attr title "Radio mode, vector"
vector 6 WirelessB.hostA.wlan[0].radio.energyConsumer powerConsumption:vector ETV
attr interpolationmode sample-hold
attr source powerConsumptionChanged
attr title "Power consumption, vector"
vector 7 WirelessB.hostB.wlan[0].radio radioMode:vector ETV
attr interpolationmode sample-hold
attr source radioModeChanged
attr title "Radio mode, vector"
vector 8 WirelessB.hostB.wlan[0].radio.energyConsumer powerConsumption:vector ETV
attr interpolationmode sample-hold
attr source powerConsumptionChanged
attr title "Power consumption, vector"
vector 9 WirelessB.hostR1.wlan[0].radio radioMode:vector ETV
attr interpolationmode sample-hold
attr source radioModeChanged
attr title "Radio mode, vector"
vector 10 WirelessB.hostR1.wlan[0].radio.energyConsumer powerConsumption:vector ETV
attr interpolationmode sample-hold
attr source powerConsumptionChanged
attr title "Power consumption, vector"
vector 11 WirelessB.hostR2.wlan[0].radio radioMode:vector ETV
attr interpolationmode sample-hold
attr source radioModeChanged
attr title "Radio mode, vector"
vector 12 WirelessB.hostR2.wlan[0].radio.energyConsumer powerConsumption:vector ETV
attr interpolationmode sample-hold
attr source powerConsumptionChanged
attr title "Power consumption, vector"
vector 13 WirelessB.hostR3.wlan[0].radio radioMode:vector ETV
attr interpolationmode sample-hold
attr source radioModeChanged
attr title "Radio mode, vector"
vector 14 WirelessB.hostR3.wlan[0].radio.energyConsumer powerConsumption:vector ETV
attr interpolationmode sample-hold
attr source powerConsumptionChanged
attr title "Power consumption, vector"
vector 15 WirelessB.hostA.wlan[0].radio receptionState:vector ETV
attr interpolationmode sample-hold
attr source receptionStateChanged
attr title "Radio reception state, vector"
vector 16 WirelessB.hostB.wlan[0].radio receptionState:vector ETV
attr interpolationmode sample-hold
attr source receptionStateChanged
attr title "Radio reception state, vector"
vector 17 WirelessB.hostR1.wlan[0].radio receptionState:vector ETV
attr interpolationmode sample-hold
attr source receptionStateChanged
attr title "Radio reception state, vector"
vector 18 WirelessB.hostR2.wlan[0].radio receptionState:vector ETV
attr interpolationmode sample-hold
attr source receptionStateChanged
attr title "Radio reception state, vector"
vector 19 WirelessB.hostR3.wlan[0].radio receptionState:vector ETV
attr interpolationmode sample-hold
attr source receptionStateChanged
attr title "Radio reception state, vector"
vector 20 WirelessB.hostA.app[0] packetSent:vector(packetBytes) ETV
attr interpolationmode none
attr source packetSent
attr title "packets sent, vector(packetBytes)"
vector 21 WirelessB.hostA.udp packetSent:vector(packetBytes) ETV
attr interpolationmode none
attr source packetSent
attr title "packets sent, vector(packetBytes)"
vector 22 WirelessB.hostA.wlan[0].mac.queue packetPushed:vector(packetBytes) ETV
attr interpolationmode none
attr title "packet pushed, vector(packetBytes)"
vector 23 WirelessB.hostA.wlan[0].mac.queue queueLength:vector ETV
attr interpolationmode sample-hold
attr source "count(packetPushed) - count(packetPopped) - count(packetRemoved) - count(packetDropped)"
attr title "queue length, vector"
vector 24 WirelessB.hostA.wlan[0].mac.queue packetPopped:vector(packetBytes) ETV
attr interpolationmode none
attr title "packet popped, vector(packetBytes)"
vector 25 WirelessB.hostA.wlan[0].mac.queue queueingTime:vector ETV
attr interpolationmode none
attr source queueingTime(packetPopped)
attr title "queueing times, vector"
attr unit s
vector 26 WirelessB.hostA.energyStorage residualEnergyCapacity:vector ETV
attr interpolationmode linear
attr source residualEnergyCapacityChanged
attr title "Residual energy capacity, vector"
vector 27 WirelessB.hostA.wlan[0].radio transmissionState:vector ETV
attr interpolationmode sample-hold
attr source transmissionStateChanged
attr title "Radio transmission state, vector"
vector 28 WirelessB.hostR2.energyStorage residualEnergyCapacity:vector ETV
attr interpolationmode linear
attr source residualEnergyCapacityChanged
attr title "Residual energy capacity, vector"
vector 29 WirelessB.hostR1.energyStorage residualEnergyCapacity:vector ETV
attr interpolationmode linear
attr source residualEnergyCapacityChanged
attr title "Residual energy capacity, vector"
vector 30 WirelessB.hostR3.energyStorage residualEnergyCapacity:vector ETV
attr interpolationmode linear
attr source residualEnergyCapacityChanged
attr title "Residual energy capacity, vector"
vector 31 WirelessB.hostB.energyStorage residualEnergyCapacity:vector ETV
attr interpolationmode linear
attr source residualEnergyCapacityChanged
attr title "Residual energy capacity, vector"
vector 32 WirelessB.hostR2.wlan[0].mac packetDropNotAddressedToUs:vector(packetBytes) ETV
attr interpolationmode none
attr source packetDropReasonIsNotAddressedToUs(packetDropped)
attr title "packet drop: not addressed to us, vector(packetBytes)"
vector 33 WirelessB.hostR1.wlan[0].mac.queue packetPushed:vector(packetBytes) ETV
attr interpolationmode none
attr title "packet pushed, vector(packetBytes)"
vector 34 WirelessB.hostR1.wlan[0].mac.queue queueLength:vector ETV
attr interpolationmode sample-hold
attr source "count(packetPushed) - count(packetPopped) - count(packetRemoved) - count(packetDropped)"
attr title "queue length, vector"
vector 35 WirelessB.hostR1.wlan[0].radio transmissionState:vector ETV
attr interpolationmode sample-hold
attr source transmissionStateChanged
attr title "Radio transmission state, vector"
vector 36 WirelessB.hostR1.wlan[0].mac.queue packetPopped:vector(packetBytes) ETV
attr interpolationmode none
attr title "packet popped, vector(packetBytes)"
vector 37 WirelessB.hostR1.wlan[0].mac.queue queueingTime:vector ETV
attr interpolationmode none
attr source queueingTime(packetPopped)
attr title "queueing times, vector"
attr unit s
vector 38 WirelessB.hostR3.wlan[0].mac packetDropNotAddressedToUs:vector(packetBytes) ETV
attr interpolationmode none
attr source packetDropReasonIsNotAddressedToUs(packetDropped)
attr title "packet drop: not addressed to us, vector(packetBytes)"
vector 39 WirelessB.hostA.wlan[0].mac packetDropNotAddressedToUs:vector(packetBytes) ETV
attr interpolationmode none
attr source packetDropReasonIsNotAddressedToUs(packetDropped)
attr title "packet drop: not addressed to us, vector(packetBytes)"
vector 40 WirelessB.hostB.udp packetReceived:vector(packetBytes) ETV
attr interpolationmode none
attr source packetReceived
attr title "packets received, vector(packetBytes)"
vector 41 WirelessB.hostB.udp passedUpPk:vector(count) ETV
attr interpolationmode none
attr source packetSentToUpper
attr title "packets passed up, vector(count)"
vector 42 WirelessB.hostB.app[0] packetReceived:vector(packetBytes) ETV
attr interpolationmode none
attr source packetReceived
attr title "packets received, vector(packetBytes)"
vector 43 WirelessB.hostB.app[0] endToEndDelay:vector ETV
attr interpolationmode none
attr source dataAge(packetReceived)
attr title "end-to-end delay, vector"
attr unit s
vector 44 WirelessB.hostB.app[0] rcvdPkSeqNo:vector ETV
attr interpolationmode none
attr source appPkSeqNo(packetReceived)
attr title "received packet sequence number, vector"
vector 45 WirelessB.hostB.wlan[0].radio transmissionState:vector ETV
attr interpolationmode sample-hold
attr source transmissionStateChanged
attr title "Radio transmission state, vector"
vector 46 WirelessB.hostB.app[0] throughput:vector ETV
attr source throughput(packetReceived)
attr title "throughput, vector"
attr unit bps
vector 47 WirelessB.hostR2.wlan[0].mac packetDropIncorrectlyReceived:vector(packetBytes) ETV
attr interpolationmode none
attr source packetDropReasonIsIncorrectlyReceived(packetDropped)
attr title "packet drop: incorrectly received, vector(packetBytes)"
vector 48 WirelessB.hostR3.wlan[0].mac packetDropIncorrectlyReceived:vector(packetBytes) ETV
attr interpolationmode none
attr source packetDropReasonIsIncorrectlyReceived(packetDropped)
attr title "packet drop: incorrectly received, vector(packetBytes)"
vector 49 WirelessB.hostB.wlan[0].mac packetDropIncorrectlyReceived:vector(packetBytes) ETV
attr interpolationmode none
attr source packetDropReasonIsIncorrectlyReceived(packetDropped)
attr title "packet drop: incorrectly received, vector(packetBytes)"
0	0	0	0
0	0	0	0
0	0	0	0
0	0	0	0
0	0	0	0.002
0	10	0.022885250545	0
0	10	0.022885250545	0
0	10	0.022885250545	0.002
0	11	0.022885250545	0
0	11	0.022885250545	0.1
0	20	0.031421250545	0.002
0	20	0.031421250545	0
0	20	0.031421250545	0.002
0	20	0.031421250545	0.002
0	20	0.031421250545	0.002
0	33	0.031432595185	0
0	33	0.031432595185	0.01
0	40	0.031672595185	0.002
0	40	0.031672595185	0.002
0	50	0.031862595185	0
0	50	0.031862595185	0.01
0	57	0.040398595185	0.002
0	57	0.040398595185	0.002
0	69	0.040409929441	0.005
0	76	0.040649929441	0.002
0	78	0.041019929441	0
0	78	0.041019929441	0
0	78	0.041019929441	0.002
0	79	0.041019929441	0
0	79	0.041019929441	0.1
0	90	0.049555929441	0.002
0	90	0.049555929441	0
0	90	0.049555929441	0.002
0	90	0.049555929441	0.002
0	90	0.049555929441	0.002
0	103	0.049567274081	0
0	103	0.049567274081	0.01
0	110	0.049807274081	0.002
0	110	0.049807274081	0.002
0	116	0.049957274081	0
0	116	0.049957274081	0
0	116	0.049957274081	0.002
0	117	0.049957274081	0
0	117	0.049957274081	0.1
0	140	0.058493274081	0.002
0	140	0.058493274081	0
0	140	0.058493274081	0.002
0	140	0.058493274081	0.002
0	140	0.058493274081	0.002
0	153	0.058504618721	0
0	153	0.058504618721	0.01
0	160	0.058744618721	0.002
0	160	0.058744618721	0.002
0	166	0.058894618721	0
0	166	0.058894618721	0
0	166	0.058894618721	0.002
0	167	0.058894618721	0
0	167	0.058894618721	0.1
0	174	0.067430618721	0.002
0	174	0.067430618721	0
0	174	0.067430618721	0.002
0	174	0.067430618721	0.002
0	174	0.067430618721	0.002
0	187	0.067441963361	0
0	187	0.067441963361	0.01
0	194	0.067681963361	0.002
0	194	0.067681963361	0.002
0	204	0.067871963361	0
0	204	0.067871963361	0.01
0	213	0.076407963361	0.002
0	213	0.076407963361	0.002
0	225	0.076419297617	0.005
0	232	0.076659297617	0.002
0	239	0.077009308001	0
0	239	0.077009308001	0.01
0	252	0.085545308001	0.002
0	252	0.085545308001	0.002
0	264	0.085556642257	0.005
0	271	0.085796642257	0.002
0	274	0.086006642257	0
0	274	0.086006642257	0
0	274	0.086006642257	0.002
0	275	0.086006642257	0
0	275	0.086006642257	0.1
0	282	0.094542642257	0.002
0	282	0.094542642257	0
0	282	0.094542642257	0.002
0	282	0.094542642257	0.002
0	282	0.094542642257	0.002
0	295	0.094553986897	0
0	295	0.094553986897	0.01
0	302	0.094793986897	0.002
0	302	0.094793986897	0.002
0	308	0.094903986897	0
0	308	0.094903986897	0
0	308	0.094903986897	0.002
0	309	0.094903986897	0
0	309	0.094903986897	0.1
0	320	0.103439986897	0.002
0	320	0.103439986897	0
0	320	0.103439986897	0.002
0	320	0.103439986897	0.002
0	320	0.103439986897	0.002
0	333	0.103451331537	0
0	333	0.103451331537	0.01
0	340	0.103691331537	0.002
0	340	0.103691331537	0.002
0	350	0.103881331537	0
0	350	0.103881331537	0.01
0	359	0.112417331537	0.002
0	359	0.112417331537	0.002
0	371	0.112428665793	0.005
0	378	0.112668665793	0.002
0	381	0.112958665793	0
0	381	0.112958665793	0
0	381	0.112958665793	0.002
0	382	0.112958665793	0
0	382	0.112958665793	0.1
0	389	0.121494665793	0.002
0	389	0.121494665793	0
0	389	0.121494665793	0.002
0	389	0.121494665793	0.002
0	389	0.121494665793	0.002
0	402	0.121506010433	0
0	402	0.121506010433	0.01
0	409	0.121746010433	0.002
0	409	0.121746010433	0.002
0	419	0.122136010433	0
0	419	0.122136010433	0.01
0	436	0.130672010433	0.002
0	436	0.130672010433	0.002
0	448	0.130683344689	0.005
0	455	0.130923344689	0.002
0	462	0.130993355073	0
0	462	0.130993355073	0.01
0	475	0.139529355073	0.002
0	475	0.139529355073	0.002
0	487	0.139540689329	0.005
0	494	0.139780689329	0.002
0	497	0.139850689329	0
0	497	0.139850689329	0
0	497	0.139850689329	0.002
0	498	0.139850689329	0
0	498	0.139850689329	0.1
0	509	0.148386689329	0.002
0	509	0.148386689329	0
0	509	0.148386689329	0.002
0	509	0.148386689329	0.002
0	509	0.148386689329	0.002
0	522	0.148398033969	0
0	522	0.148398033969	0.01
0	529	0.148638033969	0.002
0	529	0.148638033969	0.002
0	535	0.148888033969	0
0	535	0.148888033969	0
0	535	0.148888033969	0.002
0	536	0.148888033969	0
0	536	0.148888033969	0.1
0	547	0.157424033969	0.002
0	547	0.157424033969	0
0	547	0.157424033969	0.002
0	547	0.157424033969	0.002
0	547	0.157424033969	0.002
0	560	0.157435378609	0
0	560	0.157435378609	0.01
0	567	0.157675378609	0.002
0	567	0.157675378609	0.002
0	573	0.157785378609	0
0	573	0.157785378609	0
0	573	0.157785378609	0.002
0	574	0.157785378609	0
0	574	0.157785378609	0.1
0	585	0.166321378609	0.002
0	585	0.166321378609	0
0	585	0.166321378609	0.002
0	585	0.166321378609	0.002
0	585	0.166321378609	0.002
0	598	0.166332723249	0
0	598	0.166332723249	0.01
0	605	0.166572723249	0.002
0	605	0.166572723249	0.002
0	615	0.166962723249	0
0	615	0.166962723249	0.01
0	624	0.175498723249	0.002
0	624	0.175498723249	0.002
0	636	0.175510057505	0.005
0	643	0.175750057505	0.002
0	646	0.175820057505	0
0	646	0.175820057505	0
0	646	0.175820057505	0.002
0	647	0.175820057505	0
0	647	0.175820057505	0.1
0	658	0.184356057505	0.002
0	658	0.184356057505	0
0	658	0.184356057505	0.002
0	658	0.184356057505	0.002
0	658	0.184356057505	0.002
0	671	0.184367402145	0
0	671	0.184367402145	0.01
0	678	0.184607402145	0.002
0	678	0.184607402145	0.002
0	684	0.184657402145	0
0	684	0.184657402145	0
0	684	0.184657402145	0.002
0	685	0.184657402145	0
0	685	0.184657402145	0.1
0	696	0.193193402145	0.002
0	696	0.193193402145	0
0	696	0.193193402145	0.002
0	696	0.193193402145	0.002
0	696	0.193193402145	0.002
0	709	0.193204746785	0
0	709	0.193204746785	0.01
0	716	0.193444746785	0.002
0	716	0.193444746785	0.002
0	722	0.193914746785	0
0	722	0.193914746785	0
0	722	0.193914746785	0.002
0	723	0.193914746785	0
0	723	0.193914746785	0.1
0	734	0.202450746785	0.002
0	734	0.202450746785	0
0	734	0.202450746785	0.002
0	734	0.202450746785	0.002
0	734	0.202450746785	0.002
0	747	0.202462091425	0
0	747	0.202462091425	0.01
0	754	0.202702091425	0.002
0	754	0.202702091425	0.002
0	764	0.202772091425	0
0	764	0.202772091425	0.01
0	777	0.211308091425	0.002
0	777	0.211308091425	0.002
0	789	0.211319425681	0.005
0	796	0.211559425681	0.002
0	799	0.211749425681	0
0	799	0.211749425681	0
0	799	0.211749425681	0.002
0	800	0.211749425681	0
0	800	0.211749425681	0.1
0	811	0.220285425681	0.002
0	811	0.220285425681	0
0	811	0.220285425681	0.002
0	811	0.220285425681	0.002
0	811	0.220285425681	0.002
0	824	0.220296770321	0
0	824	0.220296770321	0.01
0	831	0.220536770321	0.002
0	831	0.220536770321	0.002
0	841	0.220746770321	0
0	841	0.220746770321	0.01
0	854	0.229282770321	0.002
0	854	0.229282770321	0.002
0	866	0.229294104577	0.005
0	873	0.229534104577	0.002
0	876	0.229624104577	0
0	876	0.229624104577	0
0	876	0.229624104577	0.002
0	877	0.229624104577	0
0	877	0.229624104577	0.1
0	888	0.238160104577	0.002
0	888	0.238160104577	0
0	888	0.238160104577	0.002
0	888	0.238160104577	0.002
0	888	0.238160104577	0.002
0	901	0.238171449217	0
0	901	0.238171449217	0.01
0	908	0.238411449217	0.002
0	908	0.238411449217	0.002
0	914	0.238601449217	0
0	914	0.238601449217	0
0	914	0.238601449217	0.002
0	915	0.238601449217	0
0	915	0.238601449217	0.1
0	922	0.247137449217	0.002
0	922	0.247137449217	0
0	922	0.247137449217	0.002
0	922	0.247137449217	0.002
0	922	0.247137449217	0.002
0	935	0.247148793857	0
0	935	0.247148793857	0.01
0	942	0.247388793857	0.002
0	942	0.247388793857	0.002
0	948	0.247618793857	0
0	948	0.247618793857	0
0	948	0.247618793857	0.002
0	949	0.247618793857	0
0	949	0.247618793857	0.1
0	960	0.256154793857	0.002
0	960	0.256154793857	0
0	960	0.256154793857	0.002
0	960	0.256154793857	0.002
0	960	0.256154793857	0.002
0	973	0.256166138497	0
0	973	0.256166138497	0.01
0	980	0.256406138497	0.002
0	980	0.256406138497	0.002
0	990	0.256576138497	0
0	990	0.256576138497	0
0	990	0.256576138497	0.002
0	993	0.256576138497	0
0	993	0.256576138497	0.1
0	1011	0.265112138497	0.002
0	1011	0.265112138497	0
0	1011	0.265112138497	0.002
0	1011	0.265112138497	0.002
0	1011	0.265112138497	0.002
0	1021	0.265822138497	0
0	1021	0.265822138497	0
0	1021	0.265822138497	0.002
0	1022	0.265822138497	0
0	1022	0.265822138497	0.1
0	1033	0.274358138497	0.002
0	1033	0.274358138497	0
0	1033	0.274358138497	0.002
0	1033	0.274358138497	0.002
0	1033	0.274358138497	0.002
0	1046	0.274369483137	0
0	1046	0.274369483137	0.01
0	1053	0.274609483137	0.002
0	1053	0.274609483137	0.002
0	1059	0.274939483137	0
0	1059	0.274939483137	0
0	1059	0.274939483137	0.002
0	1060	0.274939483137	0
0	1060	0.274939483137	0.1
0	1067	0.283475483137	0.002
0	1067	0.283475483137	0
0	1067	0.283475483137	0.002
0	1067	0.283475483137	0.002
0	1067	0.283475483137	0.002
0	1080	0.283486827777	0
0	1080	0.283486827777	0.01
0	1091	0.283726827777	0.002
0	1091	0.283726827777	0.002
0	1097	0.284016827777	0
0	1097	0.284016827777	0
0	1097	0.284016827777	0.002
0	1098	0.284016827777	0
0	1098	0.284016827777	0.1
0	1113	0.292552827777	0.002
0	1113	0.292552827777	0
0	1113	0.292552827777	0.002
0	1113	0.292552827777	0.002
0	1113	0.292552827777	0.002
0	1126	0.292564172417	0
0	1126	0.292564172417	0.01
0	1133	0.292804172417	0.002
0	1133	0.292804172417	0.002
0	1143	0.292894172417	0
0	1143	0.292894172417	0.01
0	1152	0.301430172417	0.002
0	1152	0.301430172417	0.002
0	1164	0.301441506673	0.005
0	1175	0.301681506673	0.002
0	1178	0.301771506673	0
0	1178	0.301771506673	0
0	1178	0.301771506673	0.002
0	1179	0.301771506673	0
0	1179	0.301771506673	0.1
0	1190	0.310307506673	0.002
0	1190	0.310307506673	0
0	1190	0.310307506673	0.002
0	1190	0.310307506673	0.002
0	1190	0.310307506673	0.002
0	1203	0.310318851313	0
0	1203	0.310318851313	0.01
0	1210	0.310558851313	0.002
0	1210	0.310558851313	0.002
0	1216	0.310668851313	0
0	1216	0.310668851313	0
0	1216	0.310668851313	0.002
0	1217	0.310668851313	0
0	1217	0.310668851313	0.1
0	1228	0.319204851313	0.002
0	1228	0.319204851313	0
0	1228	0.319204851313	0.002
0	1228	0.319204851313	0.002
0	1228	0.319204851313	0.002
0	1241	0.319216195953	0
0	1241	0.319216195953	0.01
0	1248	0.319456195953	0.002
0	1248	0.319456195953	0.002
0	1258	0.319706195953	0
0	1258	0.319706195953	0.01
0	1271	0.328242195953	0.002
0	1271	0.328242195953	0.002
0	1283	0.328253530209	0.005
0	1290	0.328493530209	0.002
0	1293	0.328743530209	0
0	1293	0.328743530209	0
0	1293	0.328743530209	0.002
0	1294	0.328743530209	0
0	1294	0.328743530209	0.1
0	1305	0.337279530209	0.002
0	1305	0.337279530209	0
0	1305	0.337279530209	0.002
0	1305	0.337279530209	0.002
0	1305	0.337279530209	0.002
0	1318	0.337290874849	0
0	1318	0.337290874849	0.01
0	1329	0.337530874849	0.002
0	1329	0.337530874849	0.002
0	1339	0.337680874849	0
0	1339	0.337680874849	0.01
0	1352	0.346216874849	0.002
0	1352	0.346216874849	0.002
0	1364	0.346228209105	0.005
0	1371	0.346468209105	0.002
0	1374	0.346718209105	0
0	1374	0.346718209105	0
0	1374	0.346718209105	0.002
0	1375	0.346718209105	0
0	1375	0.346718209105	0.1
0	1390	0.355254209105	0.002
0	1390	0.355254209105	0
0	1390	0.355254209105	0.002
0	1390	0.355254209105	0.002
0	1390	0.355254209105	0.002
0	1403	0.355265553745	0
0	1403	0.355265553745	0.01
0	1410	0.355505553745	0.002
0	1410	0.355505553745	0.002
0	1416	0.355615553745	0
0	1416	0.355615553745	0
0	1416	0.355615553745	0.002
0	1417	0.355615553745	0
0	1417	0.355615553745	0.1
0	1428	0.364151553745	0.002
0	1428	0.364151553745	0
0	1428	0.364151553745	0.002
0	1428	0.364151553745	0.002
0	1428	0.364151553745	0.002
0	1441	0.364162898385	0
0	1441	0.364162898385	0.01
0	1448	0.364402898385	0.002
0	1448	0.364402898385	0.002
0	1454	0.364552898385	0
0	1454	0.364552898385	0
0	1454	0.364552898385	0.002
0	1455	0.364552898385	0
0	1455	0.364552898385	0.1
0	1470	0.373088898385	0.002
0	1470	0.373088898385	0
0	1470	0.373088898385	0.002
0	1470	0.373088898385	0.002
0	1470	0.373088898385	0.002
0	1483	0.373100243025	0
0	1483	0.373100243025	0.01
0	1490	0.373340243025	0.002
0	1490	0.373340243025	0.002
0	1500	0.373450243025	0
0	1500	0.373450243025	0.01
0	1509	0.381986243025	0.002
0	1509	0.381986243025	0.002
0	1521	0.381997577281	0.005
0	1528	0.382237577281	0.002
0	1531	0.382307577281	0
0	1531	0.382307577281	0
0	1531	0.382307577281	0.002
0	1532	0.382307577281	0
0	1532	0.382307577281	0.1
0	1539	0.390843577281	0.002
0	1539	0.390843577281	0
0	1539	0.390843577281	0.002
0	1539	0.390843577281	0.002
0	1539	0.390843577281	0.002
0	1552	0.390854921921	0
0	1552	0.390854921921	0.01
0	1559	0.391094921921	0.002
0	1559	0.391094921921	0.002
0	1569	0.391164921921	0
0	1569	0.391164921921	0.01
0	1582	0.399700921921	0.002
0	1582	0.399700921921	0.002
0	1594	0.399712256177	0.005
0	1601	0.399952256177	0.002
0	1608	0.400042266561	0
0	1608	0.400042266561	0.01
0	1617	0.408578266561	0.002
0	1617	0.408578266561	0.002
0	1629	0.408589600817	0.005
0	1636	0.408829600817	0.002
0	1643	0.409079611201	0
0	1643	0.409079611201	0.01
0	1652	0.417615611201	0.002
0	1652	0.417615611201	0.002
0	1664	0.417626945457	0.005
0	1671	0.417866945457	0.002
0	1674	0.417976945457	0
0	1674	0.417976945457	0
0	1674	0.417976945457	0.002
0	1675	0.417976945457	0
0	1675	0.417976945457	0.1
0	1686	0.426512945457	0.002
0	1686	0.426512945457	0
0	1686	0.426512945457	0.002
0	1686	0.426512945457	0.002
0	1686	0.426512945457	0.002
0	1699	0.426524290097	0
0	1699	0.426524290097	0.01
0	1706	0.426764290097	0.002
0	1706	0.426764290097	0.002
0	1716	0.427014290097	0
0	1716	0.427014290097	0.01
0	1733	0.435550290097	0.002
0	1733	0.435550290097	0.002
0	1745	0.435561624353	0.005
0	1752	0.435801624353	0.002
0	1755	0.436071624353	0
0	1755	0.436071624353	0
0	1755	0.436071624353	0.002
0	1756	0.436071624353	0
0	1756	0.436071624353	0.1
0	1779	0.444607624353	0.002
0	1779	0.444607624353	0
0	1779	0.444607624353	0.002
0	1779	0.444607624353	0.002
0	1779	0.444607624353	0.002
0	1792	0.444618968993	0
0	1792	0.444618968993	0.01
0	1799	0.444858968993	0.002
0	1799	0.444858968993	0.002
0	1809	0.445048968993	0
0	1809	0.445048968993	0.01
0	1822	0.453584968993	0.002
0	1822	0.453584968993	0.002
0	1834	0.453596303249	0.005
0	1841	0.453836303249	0.002
0	1844	0.454346303249	0
0	1844	0.454346303249	0
0	1844	0.454346303249	0.002
0	1845	0.454346303249	0
0	1845	0.454346303249	0.1
0	1852	0.462882303249	0.002
0	1852	0.462882303249	0
0	1852	0.462882303249	0.002
0	1852	0.462882303249	0.002
0	1852	0.462882303249	0.002
0	1865	0.462893647889	0
0	1865	0.462893647889	0.01
0	1872	0.463133647889	0.002
0	1872	0.463133647889	0.002
0	1878	0.463243647889	0
0	1878	0.463243647889	0
0	1878	0.463243647889	0.002
0	1879	0.463243647889	0
0	1879	0.463243647889	0.1
0	1886	0.471779647889	0.002
0	1886	0.471779647889	0
0	1886	0.471779647889	0.002
0	1886	0.471779647889	0.002
0	1886	0.471779647889	0.002
0	1899	0.471790992529	0
0	1899	0.471790992529	0.01
0	1906	0.472030992529	0.002
0	1906	0.472030992529	0.002
0	1916	0.472100992529	0
0	1916	0.472100992529	0.01
0	1929	0.480636992529	0.002
0	1929	0.480636992529	0.002
0	1941	0.480648326785	0.005
0	1948	0.480888326785	0.002
0	1951	0.481278326785	0
0	1951	0.481278326785	0
0	1951	0.481278326785	0.002
0	1952	0.481278326785	0
0	1952	0.481278326785	0.1
0	1963	0.489814326785	0.002
0	1963	0.489814326785	0
0	1963	0.489814326785	0.002
0	1963	0.489814326785	0.002
0	1963	0.489814326785	0.002
0	1976	0.489825671425	0
0	1976	0.489825671425	0.01
0	1983	0.490065671425	0.002
0	1983	0.490065671425	0.002
0	1993	0.490175671425	0
0	1993	0.490175671425	0.01
0	2006	0.498711671425	0.002
0	2006	0.498711671425	0.002
0	2018	0.498723005681	0.005
0	2029	0.498963005681	0.002
0	2036	0.499093016065	0
0	2036	0.499093016065	0.01
0	2045	0.507629016065	0.002
0	2045	0.507629016065	0.002
0	2057	0.507640350321	0.005
0	2064	0.507880350321	0.002
0	2071	0.508130360705	0
0	2071	0.508130360705	0.01
0	2088	0.516666360705	0.002
0	2088	0.516666360705	0.002
0	2100	0.516677694961	0.005
0	2107	0.516917694961	0.002
0	2114	0.517007705345	0
0	2114	0.517007705345	0.01
0	2123	0.525543705345	0.002
0	2123	0.525543705345	0.002
0	2135	0.525555039601	0.005
0	2142	0.525795039601	0.002
0	2145	0.526005039601	0
0	2145	0.526005039601	0
0	2145	0.526005039601	0.002
0	2146	0.526005039601	0
0	2146	0.526005039601	0.1
0	2157	0.534541039601	0.002
0	2157	0.534541039601	0
0	2157	0.534541039601	0.002
0	2157	0.534541039601	0.002
0	2157	0.534541039601	0.002
0	2170	0.534552384241	0
0	2170	0.534552384241	0.01
0	2177	0.534792384241	0.002
0	2177	0.534792384241	0.002
0	2187	0.535062384241	0
0	2187	0.535062384241	0.01
0	2200	0.543598384241	0.002
0	2200	0.543598384241	0.002
0	2212	0.543609718497	0.005
0	2219	0.543849718497	0.002
0	2222	0.544119718497	0
0	2222	0.544119718497	0
0	2222	0.544119718497	0.002
0	2223	0.544119718497	0
0	2223	0.544119718497	0.1
0	2234	0.552655718497	0.002
0	2234	0.552655718497	0
0	2234	0.552655718497	0.002
0	2234	0.552655718497	0.002
0	2234	0.552655718497	0.002
0	2247	0.552667063137	0
0	2247	0.552667063137	0.01
0	2254	0.552907063137	0.002
0	2254	0.552907063137	0.002
0	2264	0.553117063137	0
0	2264	0.553117063137	0.01
0	2281	0.561653063137	0.002
0	2281	0.561653063137	0.002
0	2293	0.561664397393	0.005
0	2300	0.561904397393	0.002
0	2303	0.562174397393	0
0	2303	0.562174397393	0
0	2303	0.562174397393	0.002
0	2304	0.562174397393	0
0	2304	0.562174397393	0.1
0	2315	0.570710397393	0.002
0	2315	0.570710397393	0
0	2315	0.570710397393	0.002
0	2315	0.570710397393	0.002
0	2315	0.570710397393	0.002
0	2328	0.570721742033	0
0	2328	0.570721742033	0.01
0	2335	0.570961742033	0.002
0	2335	0.570961742033	0.002
0	2341	0.571051742033	0
0	2341	0.571051742033	0
0	2341	0.571051742033	0.002
0	2342	0.571051742033	0
0	2342	0.571051742033	0.1
0	2353	0.579587742033	0.002
0	2353	0.579587742033	0
0	2353	0.579587742033	0.002
0	2353	0.579587742033	0.002
0	2353	0.579587742033	0.002
0	2366	0.579599086673	0
0	2366	0.579599086673	0.01
0	2373	0.579839086673	0.002
0	2373	0.579839086673	0.002
0	2379	0.579929086673	0
0	2379	0.579929086673	0
0	2379	0.579929086673	0.002
0	2380	0.579929086673	0
0	2380	0.579929086673	0.1
0	2387	0.588465086673	0.002
0	2387	0.588465086673	0
0	2387	0.588465086673	0.002
0	2387	0.588465086673	0.002
0	2387	0.588465086673	0.002
0	2400	0.588476431313	0
0	2400	0.588476431313	0.01
0	2407	0.588716431313	0.002
0	2407	0.588716431313	0.002
0	2413	0.588986431313	0
0	2413	0.588986431313	0
0	2413	0.588986431313	0.002
0	2414	0.588986431313	0
0	2414	0.588986431313	0.1
0	2425	0.597522431313	0.002
0	2425	0.597522431313	0
0	2425	0.597522431313	0.002
0	2425	0.597522431313	0.002
0	2425	0.597522431313	0.002
0	2438	0.597533775953	0
0	2438	0.597533775953	0.01
0	2445	0.597773775953	0.002
0	2445	0.597773775953	0.002
0	2455	0.597903775953	0
0	2455	0.597903775953	0.01
0	2468	0.606439775953	0.002
0	2468	0.606439775953	0.002
0	2480	0.606451110209	0.005
0	2487	0.606691110209	0.002
0	2490	0.606821110209	0
0	2490	0.606821110209	0
0	2490	0.606821110209	0.002
0	2491	0.606821110209	0
0	2491	0.606821110209	0.1
0	2502	0.615357110209	0.002
0	2502	0.615357110209	0
0	2502	0.615357110209	0.002
0	2502	0.615357110209	0.002
0	2502	0.615357110209	0.002
0	2515	0.615368454849	0
0	2515	0.615368454849	0.01
0	2522	0.615608454849	0.002
0	2522	0.615608454849	0.002
0	2528	0.615698454849	0
0	2528	0.615698454849	0
0	2528	0.615698454849	0.002
0	2529	0.615698454849	0
0	2529	0.615698454849	0.1
0	2536	0.624234454849	0.002
0	2536	0.624234454849	0
0	2536	0.624234454849	0.002
0	2536	0.624234454849	0.002
0	2536	0.624234454849	0.002
0	2549	0.624245799489	0
0	2549	0.624245799489	0.01
0	2556	0.624485799489	0.002
0	2556	0.624485799489	0.002
0	2562	0.625015799489	0
0	2562	0.625015799489	0
0	2562	0.625015799489	0.002
0	2563	0.625015799489	0
0	2563	0.625015799489	0.1
0	2570	0.633551799489	0.002
0	2570	0.633551799489	0
0	2570	0.633551799489	0.002
0	2570	0.633551799489	0.002
0	2570	0.633551799489	0.002
0	2583	0.633563144129	0
0	2583	0.633563144129	0.01
0	2590	0.633803144129	0.002
0	2590	0.633803144129	0.002
0	2600	0.633873144129	0
0	2600	0.633873144129	0.01
0	2613	0.642409144129	0.002
0	2613	0.642409144129	0.002
0	2625	0.642420478385	0.005
0	2632	0.642660478385	0.002
0	2635	0.643090478385	0
0	2635	0.643090478385	0
0	2635	0.643090478385	0.002
0	2636	0.643090478385	0
0	2636	0.643090478385	0.1
0	2643	0.651626478385	0.002
0	2643	0.651626478385	0
0	2643	0.651626478385	0.002
0	2643	0.651626478385	0.002
0	2643	0.651626478385	0.002
0	2656	0.651637823025	0
0	2656	0.651637823025	0.01
0	2663	0.651877823025	0.002
0	2663	0.651877823025	0.002
0	2673	0.652127823025	0
0	2673	0.652127823025	0.01
0	2682	0.660663823025	0.002
0	2682	0.660663823025	0.002
0	2694	0.660675157281	0.005
0	2701	0.660915157281	0.002
0	2708	0.660965167665	0
0	2708	0.660965167665	0.01
0	2717	0.669501167665	0.002
0	2717	0.669501167665	0.002
0	2729	0.669512501921	0.005
0	2736	0.669752501921	0.002
0	2743	0.669882501921	0
0	2743	0.669882501921	0
0	2743	0.669882501921	0.002
0	2744	0.669882501921	0
0	2744	0.669882501921	0.1
0	2762	0.678418501921	0.002
0	2762	0.678418501921	0
0	2762	0.678418501921	0.005
0	2762	0.678418501921	0.005
0	2762	0.678418501921	0.005
0	2763	0.678418512305	0.002
0	2778	0.678988512305	0
0	2778	0.678988512305	0.01
0	2787	0.687524512305	0.002
0	2787	0.687524512305	0.002
0	2799	0.687535846561	0.005
0	2810	0.687775846561	0.002
0	2817	0.688325856945	0
0	2817	0.688325856945	0.01
0	2826	0.696861856945	0.002
0	2826	0.696861856945	0.002
0	2838	0.696873191201	0.005
0	2845	0.697113191201	0.002
0	2852	0.697423201585	0
0	2852	0.697423201585	0.01
0	2861	0.705959201585	0.002
0	2861	0.705959201585	0.002
0	2873	0.705970535841	0.005
0	2880	0.706210535841	0.002
0	2887	0.706480535841	0
0	2887	0.706480535841	0
0	2887	0.706480535841	0.002
0	2888	0.706480535841	0
0	2888	0.706480535841	0.1
0	2910	0.715016535841	0.002
0	2910	0.715016535841	0
0	2910	0.715016535841	0.005
0	2910	0.715016535841	0.005
0	2910	0.715016535841	0.005
0	2911	0.715016546225	0.002
0	2930	0.715786546225	0
0	2930	0.715786546225	0.01
0	2939	0.724322546225	0.002
0	2939	0.724322546225	0.002
0	2951	0.724333880481	0.005
0	2958	0.724573880481	0.002
0	2967	0.725183890865	0
0	2967	0.725183890865	0.01
0	2978	0.733719890865	0.002
0	2978	0.733719890865	0.002
0	2990	0.733731225121	0.005
0	2997	0.733971225121	0.002
0	3005	0.734441235505	0
0	3005	0.734441235505	0.01
0	3021	0.742977235505	0.002
0	3021	0.742977235505	0.002
0	3033	0.742988569761	0.005
0	3040	0.743228569761	0.002
0	3047	0.743278580145	0
0	3047	0.743278580145	0.01
0	3060	0.751814580145	0.002
0	3060	0.751814580145	0.002
0	3072	0.751825914401	0.005
0	3079	0.752065914401	0.002
0	3086	0.752655924785	0
0	3086	0.752655924785	0.01
0	3099	0.761191924785	0.002
0	3099	0.761191924785	0.002
0	3111	0.761203259041	0.005
0	3118	0.761443259041	0.002
0	3121	0.761753259041	0
0	3121	0.761753259041	0
0	3121	0.761753259041	0.002
0	3122	0.761753259041	0
0	3122	0.761753259041	0.1
0	3133	0.770289259041	0.002
0	3133	0.770289259041	0
0	3133	0.770289259041	0.002
0	3133	0.770289259041	0.002
0	3133	0.770289259041	0.002
0	3146	0.770300603681	0
0	3146	0.770300603681	0.01
0	3153	0.770540603681	0.002
0	3153	0.770540603681	0.002
0	3159	0.770730603681	0
0	3159	0.770730603681	0
0	3159	0.770730603681	0.002
0	3160	0.770730603681	0
0	3160	0.770730603681	0.1
0	3171	0.779266603681	0.002
0	3171	0.779266603681	0
0	3171	0.779266603681	0.002
0	3171	0.779266603681	0.002
0	3171	0.779266603681	0.002
0	3184	0.779277948321	0
0	3184	0.779277948321	0.01
0	3191	0.779517948321	0.002
0	3191	0.779517948321	0.002
0	3201	0.779587948321	0
0	3201	0.779587948321	0.01
0	3214	0.788123948321	0.002
0	3214	0.788123948321	0.002
0	3226	0.788135282577	0.005
0	3237	0.788375282577	0.002
0	3240	0.788705282577	0
0	3240	0.788705282577	0
0	3240	0.788705282577	0.002
0	3241	0.788705282577	0
0	3241	0.788705282577	0.1
0	3260	0.797241282577	0.002
0	3260	0.797241282577	0
0	3260	0.797241282577	0.002
0	3260	0.797241282577	0.002
0	3260	0.797241282577	0.002
0	3273	0.797252627217	0
0	3273	0.797252627217	0.01
0	3280	0.797492627217	0.002
0	3280	0.797492627217	0.002
0	3290	0.797562627217	0
0	3290	0.797562627217	0.01
0	3303	0.806098627217	0.002
0	3303	0.806098627217	0.002
0	3315	0.806109961473	0.005
0	3322	0.806349961473	0.002
0	3329	0.806879971857	0
0	3329	0.806879971857	0.01
0	3338	0.815415971857	0.002
0	3338	0.815415971857	0.002
0	3350	0.815427306113	0.005
0	3357	0.815667306113	0.002
0	3360	0.815837306113	0
0	3360	0.815837306113	0
0	3360	0.815837306113	0.002
0	3361	0.815837306113	0
0	3361	0.815837306113	0.1
0	3372	0.824373306113	0.002
0	3372	0.824373306113	0
0	3372	0.824373306113	0.002
0	3372	0.824373306113	0.002
0	3372	0.824373306113	0.002
0	3385	0.824384650753	0
0	3385	0.824384650753	0.01
0	3392	0.824624650753	0.002
0	3392	0.824624650753	0.002
0	3398	0.825034650753	0
0	3398	0.825034650753	0
0	3398	0.825034650753	0.002
0	3399	0.825034650753	0
0	3399	0.825034650753	0.1
0	3418	0.833570650753	0.002
0	3418	0.833570650753	0
0	3418	0.833570650753	0.002
0	3418	0.833570650753	0.002
0	3418	0.833570650753	0.002
0	3431	0.833581995393	0
0	3431	0.833581995393	0.01
0	3438	0.833821995393	0.002
0	3438	0.833821995393	0.002
0	3448	0.833971995393	0
0	3448	0.833971995393	0.01
0	3457	0.842507995393	0.002
0	3457	0.842507995393	0.002
0	3469	0.842519329649	0.005
0	3476	0.842759329649	0.002
0	3479	0.843149329649	0
0	3479	0.843149329649	0
0	3479	0.843149329649	0.002
0	3480	0.843149329649	0
0	3480	0.843149329649	0.1
0	3487	0.851685329649	0.002
0	3487	0.851685329649	0
0	3487	0.851685329649	0.002
0	3487	0.851685329649	0.002
0	3487	0.851685329649	0.002
0	3500	0.851696674289	0
0	3500	0.851696674289	0.01
0	3507	0.851936674289	0.002
0	3507	0.851936674289	0.002
0	3517	0.852246674289	0
0	3517	0.852246674289	0.01
0	3526	0.860782674289	0.002
0	3526	0.860782674289	0.002
0	3538	0.860794008545	0.005
0	3545	0.861034008545	0.002
0	3552	0.861184018929	0
0	3552	0.861184018929	0.01
0	3561	0.869720018929	0.002
0	3561	0.869720018929	0.002
0	3573	0.869731353185	0.005
0	3580	0.869971353185	0.002
0	3583	0.870241353185	0
0	3583	0.870241353185	0
0	3583	0.870241353185	0.002
0	3584	0.870241353185	0
0	3584	0.870241353185	0.1
0	3595	0.878777353185	0.002
0	3595	0.878777353185	0
0	3595	0.878777353185	0.002
0	3595	0.878777353185	0.002
0	3595	0.878777353185	0.002
0	3608	0.878788697825	0
0	3608	0.878788697825	0.01
0	3615	0.879028697825	0.002
0	3615	0.879028697825	0.002
0	3621	0.879298697825	0
0	3621	0.879298697825	0
0	3621	0.879298697825	0.002
0	3622	0.879298697825	0
0	3622	0.879298697825	0.1
0	3637	0.887834697825	0.002
0	3637	0.887834697825	0
0	3637	0.887834697825	0.002
0	3637	0.887834697825	0.002
0	3637	0.887834697825	0.002
0	3650	0.887846042465	0
0	3650	0.887846042465	0.01
0	3657	0.888086042465	0.002
0	3657	0.888086042465	0.002
0	3667	0.888156042465	0
0	3667	0.888156042465	0.01
0	3684	0.896692042465	0.002
0	3684	0.896692042465	0.002
0	3696	0.896703376721	0.005
0	3703	0.896943376721	0.002
0	3710	0.897153387105	0
0	3710	0.897153387105	0.01
0	3719	0.905689387105	0.002
0	3719	0.905689387105	0.002
0	3731	0.905700721361	0.005
0	3738	0.905940721361	0.002
0	3745	0.906030721361	0
0	3745	0.906030721361	0
0	3745	0.906030721361	0.002
0	3746	0.906030721361	0
0	3746	0.906030721361	0.1
0	3760	0.914566721361	0.002
0	3760	0.914566721361	0
0	3760	0.914566721361	0.005
0	3760	0.914566721361	0.005
0	3760	0.914566721361	0.005
0	3761	0.914566731745	0.002
0	3772	0.915296721361	0
0	3772	0.915296721361	0
0	3772	0.915296721361	0.002
0	3773	0.915296721361	0
0	3773	0.915296721361	0.1
0	3788	0.923832721361	0.002
0	3788	0.923832721361	0
0	3788	0.923832721361	0.002
0	3788	0.923832721361	0.002
0	3788	0.923832721361	0.002
0	3801	0.923844066001	0
0	3801	0.923844066001	0.01
0	3808	0.924084066001	0.002
0	3808	0.924084066001	0.002
0	3818	0.924294066001	0
0	3818	0.924294066001	0.01
0	3827	0.932830066001	0.002
0	3827	0.932830066001	0.002
0	3839	0.932841400257	0.005
0	3846	0.933081400257	0.002
0	3849	0.933251400257	0
0	3849	0.933251400257	0
0	3849	0.933251400257	0.002
0	3850	0.933251400257	0
0	3850	0.933251400257	0.1
0	3857	0.941787400257	0.002
0	3857	0.941787400257	0
0	3857	0.941787400257	0.002
0	3857	0.941787400257	0.002
0	3857	0.941787400257	0.002
0	3870	0.941798744897	0
0	3870	0.941798744897	0.01
0	3877	0.942038744897	0.002
0	3877	0.942038744897	0.002
0	3887	0.942368744897	0
0	3887	0.942368744897	0.01
0	3908	0.950904744897	0.002
0	3908	0.950904744897	0.002
0	3920	0.950916079153	0.005
0	3927	0.951156079153	0.002
0	3930	0.951346079153	0
0	3930	0.951346079153	0
0	3930	0.951346079153	0.002
0	3931	0.951346079153	0
0	3931	0.951346079153	0.1
0	3938	0.959882079153	0.002
0	3938	0.959882079153	0
0	3938	0.959882079153	0.002
0	3938	0.959882079153	0.002
0	3938	0.959882079153	0.002
0	3951	0.959893423793	0
0	3951	0.959893423793	0.01
0	3958	0.960133423793	0.002
0	3958	0.960133423793	0.002
0	3968	0.960223423793	0
0	3968	0.960223423793	0.01
0	3977	0.968759423793	0.002
0	3977	0.968759423793	0.002
0	3989	0.968770758049	0.005
0	3996	0.969010758049	0.002
0	4003	0.969120768433	0
0	4003	0.969120768433	0.01
0	4012	0.977656768433	0.002
0	4012	0.977656768433	0.002
0	4024	0.977668102689	0.005
0	4031	0.977908102689	0.002
0	4038	0.978238113073	0
0	4038	0.978238113073	0.01
0	4047	0.986774113073	0.002
0	4047	0.986774113073	0.002
0	4059	0.986785447329	0.005
0	4066	0.987025447329	0.002
0	4069	0.987155447329	0
0	4069	0.987155447329	0
0	4069	0.987155447329	0.002
0	4070	0.987155447329	0
0	4070	0.987155447329	0.1
0	4081	0.995691447329	0.002
0	4081	0.995691447329	0
0	4081	0.995691447329	0.002
0	4081	0.995691447329	0.002
0	4081	0.995691447329	0.002
0	4094	0.995702791969	0
0	4094	0.995702791969	0.01
0	4101	0.995942791969	0.002
0	4101	0.995942791969	0.002
0	4107	0.996052791969	0
0	4107	0.996052791969	0
0	4107	0.996052791969	0.002
0	4108	0.996052791969	0
0	4108	0.996052791969	0.1
0	4115	1.004588791969	0.002
0	4115	1.004588791969	0
0	4115	1.004588791969	0.002
0	4115	1.004588791969	0.002
0	4115	1.004588791969	0.002
0	4128	1.004600136609	0
0	4128	1.004600136609	0.01
0	4135	1.004840136609	0.002
0	4135	1.004840136609	0.002
0	4145	1.005270136609	0
0	4145	1.005270136609	0.01
0	4154	1.013806136609	0.002
0	4154	1.013806136609	0.002
0	4166	1.013817470865	0.005
0	4173	1.014057470865	0.002
0	4180	1.014287481249	0
0	4180	1.014287481249	0.01
0	4197	1.022823481249	0.002
0	4197	1.022823481249	0.002
0	4209	1.022834815505	0.005
0	4216	1.023074815505	0.002
0	4219	1.023184815505	0
0	4219	1.023184815505	0
0	4219	1.023184815505	0.002
0	4220	1.023184815505	0
0	4220	1.023184815505	0.1
0	4227	1.031720815505	0.002
0	4227	1.031720815505	0
0	4227	1.031720815505	0.002
0	4227	1.031720815505	0.002
0	4227	1.031720815505	0.002
0	4240	1.031732160145	0
0	4240	1.031732160145	0.01
0	4247	1.031972160145	0.002
0	4247	1.031972160145	0.002
0	4257	1.032102160145	0
0	4257	1.032102160145	0.01
0	4270	1.040638160145	0.002
0	4270	1.040638160145	0.002
0	4282	1.040649494401	0.005
0	4289	1.040889494401	0.002
0	4296	1.041179504785	0
0	4296	1.041179504785	0.01
0	4305	1.049715504785	0.002
0	4305	1.049715504785	0.002
0	4317	1.049726839041	0.005
0	4324	1.049966839041	0.002
0	4331	1.050056849425	0
0	4331	1.050056849425	0.01
0	4344	1.058592849425	0.002
0	4344	1.058592849425	0.002
0	4356	1.058604183681	0.005
0	4363	1.058844183681	0.002
0	4370	1.058914194065	0
0	4370	1.058914194065	0.01
0	4391	1.067450194065	0.002
0	4391	1.067450194065	0.002
0	4403	1.067461528321	0.005
0	4410	1.067701528321	0.002
0	4412	1.067951528321	0
0	4412	1.067951528321	0
0	4412	1.067951528321	0.002
0	4413	1.067951528321	0
0	4413	1.067951528321	0.1
0	4420	1.076487528321	0.002
0	4420	1.076487528321	0
0	4420	1.076487528321	0.002
0	4420	1.076487528321	0.002
0	4420	1.076487528321	0.002
0	4433	1.076498872961	0
0	4433	1.076498872961	0.01
0	4440	1.076738872961	0.002
0	4440	1.076738872961	0.002
0	4450	1.076828872961	0
0	4450	1.076828872961	0.01
0	4463	1.085364872961	0.002
0	4463	1.085364872961	0.002
0	4475	1.085376207217	0.005
0	4482	1.085616207217	0.002
0	4484	1.085726207217	0
0	4484	1.085726207217	0
0	4484	1.085726207217	0.002
0	4485	1.085726207217	0
0	4485	1.085726207217	0.1
0	4496	1.094262207217	0.002
0	4496	1.094262207217	0
0	4496	1.094262207217	0.002
0	4496	1.094262207217	0.002
0	4496	1.094262207217	0.002
0	4509	1.094273551857	0
0	4509	1.094273551857	0.01
0	4516	1.094513551857	0.002
0	4516	1.094513551857	0.002
0	4522	1.094723551857	0
0	4522	1.094723551857	0
0	4522	1.094723551857	0.002
0	4523	1.094723551857	0
0	4523	1.094723551857	0.1
0	4530	1.103259551857	0.002
0	4530	1.103259551857	0
0	4530	1.103259551857	0.002
0	4530	1.103259551857	0.002
0	4530	1.103259551857	0.002
0	4543	1.103270896497	0
0	4543	1.103270896497	0.01
0	4550	1.103510896497	0.002
0	4550	1.103510896497	0.002
0	4560	1.104000896497	0
0	4560	1.104000896497	0.01
0	4569	1.112536896497	0.002
0	4569	1.112536896497	0.002
0	4581	1.112548230753	0.005
0	4588	1.112788230753	0.002
0	4595	1.112858241137	0
0	4595	1.112858241137	0.01
0	4608	1.121394241137	0.002
0	4608	1.121394241137	0.002
0	4620	1.121405575393	0.005
0	4627	1.121645575393	0.002
0	4629	1.121815575393	0
0	4629	1.121815575393	0
0	4629	1.121815575393	0.002
0	4630	1.121815575393	0
0	4630	1.121815575393	0.1
0	4641	1.130351575393	0.002
0	4641	1.130351575393	0
0	4641	1.130351575393	0.002
0	4641	1.130351575393	0.002
0	4641	1.130351575393	0.002
0	4654	1.130362920033	0
0	4654	1.130362920033	0.01
0	4661	1.130602920033	0.002
0	4661	1.130602920033	0.002
0	4667	1.130812920033	0
0	4667	1.130812920033	0
0	4667	1.130812920033	0.002
0	4668	1.130812920033	0
0	4668	1.130812920033	0.1
0	4683	1.139348920033	0.002
0	4683	1.139348920033	0
0	4683	1.139348920033	0.002
0	4683	1.139348920033	0.002
0	4683	1.139348920033	0.002
0	4696	1.139360264673	0
0	4696	1.139360264673	0.01
0	4703	1.139600264673	0.002
0	4703	1.139600264673	0.002
0	4709	1.139710264673	0
0	4709	1.139710264673	0
0	4709	1.139710264673	0.002
0	4710	1.139710264673	0
0	4710	1.139710264673	0.1
0	4717	1.148246264673	0.002
0	4717	1.148246264673	0
0	4717	1.148246264673	0.002
0	4717	1.148246264673	0.002
0	4717	1.148246264673	0.002
0	4730	1.148257609313	0
0	4730	1.148257609313	0.01
0	4737	1.148497609313	0.002
0	4737	1.148497609313	0.002
0	4743	1.148687609313	0
0	4743	1.148687609313	0
0	4743	1.148687609313	0.002
0	4744	1.148687609313	0
0	4744	1.148687609313	0.1
0	4751	1.157223609313	0.002
0	4751	1.157223609313	0
0	4751	1.157223609313	0.002
0	4751	1.157223609313	0.002
0	4751	1.157223609313	0.002
0	4764	1.157234953953	0
0	4764	1.157234953953	0.01
0	4771	1.157474953953	0.002
0	4771	1.157474953953	0.002
0	4781	1.157704953953	0
0	4781	1.157704953953	0.01
0	4790	1.166240953953	0.002
0	4790	1.166240953953	0.002
0	4802	1.166252288209	0.005
0	4809	1.166492288209	0.002
0	4816	1.166602298593	0
0	4816	1.166602298593	0.01
0	4829	1.175138298593	0.002
0	4829	1.175138298593	0.002
0	4841	1.175149632849	0.005
0	4848	1.175389632849	0.002
0	4851	1.175759632849	0
0	4851	1.175759632849	0
0	4851	1.175759632849	0.002
0	4852	1.175759632849	0
0	4852	1.175759632849	0.1
0	4863	1.184295632849	0.002
0	4863	1.184295632849	0
0	4863	1.184295632849	0.002
0	4863	1.184295632849	0.002
0	4863	1.184295632849	0.002
0	4876	1.184306977489	0
0	4876	1.184306977489	0.01
0	4883	1.184546977489	0.002
0	4883	1.184546977489	0.002
0	4893	1.184856977489	0
0	4893	1.184856977489	0.01
0	4902	1.193392977489	0.002
0	4902	1.193392977489	0.002
0	4914	1.193404311745	0.005
0	4921	1.193644311745	0.002
0	4924	1.193794311745	0
0	4924	1.193794311745	0
0	4924	1.193794311745	0.002
0	4925	1.193794311745	0
0	4925	1.193794311745	0.1
0	4932	1.202330311745	0.002
0	4932	1.202330311745	0
0	4932	1.202330311745	0.002
0	4932	1.202330311745	0.002
0	4932	1.202330311745	0.002
0	4945	1.202341656385	0
0	4945	1.202341656385	0.01
0	4952	1.202581656385	0.002
0	4952	1.202581656385	0.002
0	4962	1.202871656385	0
0	4962	1.202871656385	0.01
0	4971	1.211407656385	0.002
0	4971	1.211407656385	0.002
0	4983	1.211418990641	0.005
0	4990	1.211658990641	0.002
0	4993	1.212048990641	0
0	4993	1.212048990641	0
0	4993	1.212048990641	0.002
0	4994	1.212048990641	0
0	4994	1.212048990641	0.1
0	5001	1.220584990641	0.002
0	5001	1.220584990641	0
0	5001	1.220584990641	0.002
0	5001	1.220584990641	0.002
0	5001	1.220584990641	0.002
0	5014	1.220596335281	0
0	5014	1.220596335281	0.01
0	5021	1.220836335281	0.002
0	5021	1.220836335281	0.002
0	5031	1.220946335281	0
0	5031	1.220946335281	0.01
0	5048	1.229482335281	0.002
0	5048	1.229482335281	0.002
0	5060	1.229493669537	0.005
0	5067	1.229733669537	0.002
0	5074	1.230023679921	0
0	5074	1.230023679921	0.01
0	5083	1.238559679921	0.002
0	5083	1.238559679921	0.002
0	5095	1.238571014177	0.005
0	5102	1.238811014177	0.002
0	5105	1.239141014177	0
0	5105	1.239141014177	0
0	5105	1.239141014177	0.002
0	5106	1.239141014177	0
0	5106	1.239141014177	0.1
0	5113	1.247677014177	0.002
0	5113	1.247677014177	0
0	5113	1.247677014177	0.002
0	5113	1.247677014177	0.002
0	5113	1.247677014177	0.002
0	5126	1.247688358817	0
0	5126	1.247688358817	0.01
0	5133	1.247928358817	0.002
0	5133	1.247928358817	0.002
0	5143	1.248118358817	0
0	5143	1.248118358817	0.01
0	5152	1.256654358817	0.002
0	5152	1.256654358817	0.002
0	5164	1.256665693073	0.005
0	5171	1.256905693073	0.002
0	5178	1.256995703457	0
0	5178	1.256995703457	0.01
0	5195	1.265531703457	0.002
0	5195	1.265531703457	0.002
0	5207	1.265543037713	0.005
0	5218	1.265783037713	0.002
0	5220	1.266233037713	0
0	5220	1.266233037713	0
0	5220	1.266233037713	0.002
0	5221	1.266233037713	0
0	5221	1.266233037713	0.1
0	5236	1.274769037713	0.002
0	5236	1.274769037713	0
0	5236	1.274769037713	0.002
0	5236	1.274769037713	0.002
0	5236	1.274769037713	0.002
0	5249	1.274780382353	0
0	5249	1.274780382353	0.01
0	5256	1.275020382353	0.002
0	5256	1.275020382353	0.002
0	5266	1.275210382353	0
0	5266	1.275210382353	0.01
0	5283	1.283746382353	0.002
0	5283	1.283746382353	0.002
0	5295	1.283757716609	0.005
0	5302	1.283997716609	0.002
0	5304	1.284267716609	0
0	5304	1.284267716609	0
0	5304	1.284267716609	0.002
0	5305	1.284267716609	0
0	5305	1.284267716609	0.1
0	5324	1.292803716609	0.002
0	5324	1.292803716609	0
0	5324	1.292803716609	0.002
0	5324	1.292803716609	0.002
0	5324	1.292803716609	0.002
0	5337	1.292815061249	0
0	5337	1.292815061249	0.01
0	5344	1.293055061249	0.002
0	5344	1.293055061249	0.002
0	5350	1.293105061249	0
0	5350	1.293105061249	0
0	5350	1.293105061249	0.002
0	5351	1.293105061249	0
0	5351	1.293105061249	0.1
0	5362	1.301641061249	0.002
0	5362	1.301641061249	0
0	5362	1.301641061249	0.002
0	5362	1.301641061249	0.002
0	5362	1.301641061249	0.002
0	5375	1.301652405889	0
0	5375	1.301652405889	0.01
0	5382	1.301892405889	0.002
0	5382	1.301892405889	0.002
0	5392	1.302302405889	0
0	5392	1.302302405889	0.01
0	5405	1.310838405889	0.002
0	5405	1.310838405889	0.002
0	5417	1.310849740145	0.005
0	5424	1.311089740145	0.002
0	5431	1.311319750529	0
0	5431	1.311319750529	0.01
0	5440	1.319855750529	0.002
0	5440	1.319855750529	0.002
0	5452	1.319867084785	0.005
0	5459	1.320107084785	0.002
0	5461	1.320177084785	0
0	5461	1.320177084785	0
0	5461	1.320177084785	0.002
0	5462	1.320177084785	0
0	5462	1.320177084785	0.1
0	5477	1.328713084785	0.002
0	5477	1.328713084785	0
0	5477	1.328713084785	0.002
0	5477	1.328713084785	0.002
0	5477	1.328713084785	0.002
0	5490	1.328724429425	0
0	5490	1.328724429425	0.01
0	5497	1.328964429425	0.002
0	5497	1.328964429425	0.002
0	5503	1.329214429425	0
0	5503	1.329214429425	0
0	5503	1.329214429425	0.002
0	5504	1.329214429425	0
0	5504	1.329214429425	0.1
0	5511	1.337750429425	0.002
0	5511	1.337750429425	0
0	5511	1.337750429425	0.002
0	5511	1.337750429425	0.002
0	5511	1.337750429425	0.002
0	5524	1.337761774065	0
0	5524	1.337761774065	0.01
0	5531	1.338001774065	0.002
0	5531	1.338001774065	0.002
0	5537	1.338131774065	0
0	5537	1.338131774065	0
0	5537	1.338131774065	0.002
0	5538	1.338131774065	0
0	5538	1.338131774065	0.1
0	5553	1.346667774065	0.002
0	5553	1.346667774065	0
0	5553	1.346667774065	0.002
0	5553	1.346667774065	0.002
0	5553	1.346667774065	0.002
0	5566	1.346679118705	0
0	5566	1.346679118705	0.01
0	5573	1.346919118705	0.002
0	5573	1.346919118705	0.002
0	5583	1.347009118705	0
0	5583	1.347009118705	0.01
0	5592	1.355545118705	0.002
0	5592	1.355545118705	0.002
0	5604	1.355556452961	0.005
0	5611	1.355796452961	0.002
0	5614	1.355866452961	0
0	5614	1.355866452961	0
0	5614	1.355866452961	0.002
0	5615	1.355866452961	0
0	5615	1.355866452961	0.1
0	5622	1.364402452961	0.002
0	5622	1.364402452961	0
0	5622	1.364402452961	0.002
0	5622	1.364402452961	0.002
0	5622	1.364402452961	0.002
0	5635	1.364413797601	0
0	5635	1.364413797601	0.01
0	5642	1.364653797601	0.002
0	5642	1.364653797601	0.002
0	5648	1.364863797601	0
0	5648	1.364863797601	0
0	5648	1.364863797601	0.002
0	5649	1.364863797601	0
0	5649	1.364863797601	0.1
0	5660	1.373399797601	0.002
0	5660	1.373399797601	0
0	5660	1.373399797601	0.002
0	5660	1.373399797601	0.002
0	5660	1.373399797601	0.002
0	5673	1.373411142241	0
0	5673	1.373411142241	0.01
0	5680	1.373651142241	0.002
0	5680	1.373651142241	0.002
0	5690	1.373901142241	0
0	5690	1.373901142241	0.01
0	5703	1.382437142241	0.002
0	5703	1.382437142241	0.002
0	5715	1.382448476497	0.005
0	5722	1.382688476497	0.002
0	5725	1.383118476497	0
0	5725	1.383118476497	0
0	5725	1.383118476497	0.002
0	5726	1.383118476497	0
0	5726	1.383118476497	0.1
0	5737	1.391654476497	0.002
0	5737	1.391654476497	0
0	5737	1.391654476497	0.002
0	5737	1.391654476497	0.002
0	5737	1.391654476497	0.002
0	5750	1.391665821137	0
0	5750	1.391665821137	0.01
0	5757	1.391905821137	0.002
0	5757	1.391905821137	0.002
0	5767	1.392035821137	0
0	5767	1.392035821137	0.01
0	5776	1.400571821137	0.002
0	5776	1.400571821137	0.002
0	5788	1.400583155393	0.005
0	5795	1.400823155393	0.002
0	5798	1.400953155393	0
0	5798	1.400953155393	0
0	5798	1.400953155393	0.002
0	5799	1.400953155393	0
0	5799	1.400953155393	0.1
0	5806	1.409489155393	0.002
0	5806	1.409489155393	0
0	5806	1.409489155393	0.002
0	5806	1.409489155393	0.002
0	5806	1.409489155393	0.002
0	5819	1.409500500033	0
0	5819	1.409500500033	0.01
0	5826	1.409740500033	0.002
0	5826	1.409740500033	0.002
0	5836	1.409850500033	0
0	5836	1.409850500033	0.01
0	5849	1.418386500033	0.002
0	5849	1.418386500033	0.002
0	5861	1.418397834289	0.005
0	5868	1.418637834289	0.002
0	5875	1.419027844673	0
0	5875	1.419027844673	0.01
0	5884	1.427563844673	0.002
0	5884	1.427563844673	0.002
0	5896	1.427575178929	0.005
0	5903	1.427815178929	0.002
0	5906	1.427925178929	0
0	5906	1.427925178929	0
0	5906	1.427925178929	0.002
0	5907	1.427925178929	0
0	5907	1.427925178929	0.1
0	5914	1.436461178929	0.002
0	5914	1.436461178929	0
0	5914	1.436461178929	0.002
0	5914	1.436461178929	0.002
0	5914	1.436461178929	0.002
0	5927	1.436472523569	0
0	5927	1.436472523569	0.01
0	5934	1.436712523569	0.002
0	5934	1.436712523569	0.002
0	5940	1.437162523569	0
0	5940	1.437162523569	0
0	5940	1.437162523569	0.002
0	5941	1.437162523569	0
0	5941	1.437162523569	0.1
0	5952	1.445698523569	0.002
0	5952	1.445698523569	0
0	5952	1.445698523569	0.002
0	5952	1.445698523569	0.002
0	5952	1.445698523569	0.002
0	5965	1.445709868209	0
0	5965	1.445709868209	0.01
0	5972	1.445949868209	0.002
0	5972	1.445949868209	0.002
0	5982	1.446019868209	0
0	5982	1.446019868209	0.01
0	5995	1.454555868209	0.002
0	5995	1.454555868209	0.002
0	6007	1.454567202465	0.005
0	6014	1.454807202465	0.002
0	6017	1.455057202465	0
0	6017	1.455057202465	0
0	6017	1.455057202465	0.002
0	6018	1.455057202465	0
0	6018	1.455057202465	0.1
0	6025	1.463593202465	0.002
0	6025	1.463593202465	0
0	6025	1.463593202465	0.002
0	6025	1.463593202465	0.002
0	6025	1.463593202465	0.002
0	6038	1.463604547105	0
0	6038	1.463604547105	0.01
0	6045	1.463844547105	0.002
0	6045	1.463844547105	0.002
0	6051	1.463894547105	0
0	6051	1.463894547105	0
0	6051	1.463894547105	0.002
0	6052	1.463894547105	0
0	6052	1.463894547105	0.1
0	6063	1.472430547105	0.002
0	6063	1.472430547105	0
0	6063	1.472430547105	0.002
0	6063	1.472430547105	0.002
0	6063	1.472430547105	0.002
0	6076	1.472441891745	0
0	6076	1.472441891745	0.01
0	6083	1.472681891745	0.002
0	6083	1.472681891745	0.002
0	6093	1.473031891745	0
0	6093	1.473031891745	0.01
0	6102	1.481567891745	0.002
0	6102	1.481567891745	0.002
0	6114	1.481579226001	0.005
0	6121	1.481819226001	0.002
0	6124	1.482009226001	0
0	6124	1.482009226001	0
0	6124	1.482009226001	0.002
0	6125	1.482009226001	0
0	6125	1.482009226001	0.1
0	6132	1.490545226001	0.002
0	6132	1.490545226001	0
0	6132	1.490545226001	0.002
0	6132	1.490545226001	0.002
0	6132	1.490545226001	0.002
0	6145	1.490556570641	0
0	6145	1.490556570641	0.01
0	6152	1.490796570641	0.002
0	6152	1.490796570641	0.002
0	6158	1.491246570641	0
0	6158	1.491246570641	0
0	6158	1.491246570641	0.002
0	6159	1.491246570641	0
0	6159	1.491246570641	0.1
0	6170	1.499782570641	0.002
0	6170	1.499782570641	0
0	6170	1.499782570641	0.002
0	6170	1.499782570641	0.002
0	6170	1.499782570641	0.002
0	6183	1.499793915281	0
0	6183	1.499793915281	0.01
0	6190	1.500033915281	0.002
0	6190	1.500033915281	0.002
0	6200	1.500103915281	0
0	6200	1.500103915281	0.01
0	6213	1.508639915281	0.002
0	6213	1.508639915281	0.002
0	6225	1.508651249537	0.005
0	6232	1.508891249537	0.002
0	6239	1.509321259921	0
0	6239	1.509321259921	0.01
0	6248	1.517857259921	0.002
0	6248	1.517857259921	0.002
0	6260	1.517868594177	0.005
0	6267	1.518108594177	0.002
0	6270	1.518198594177	0
0	6270	1.518198594177	0
0	6270	1.518198594177	0.002
0	6271	1.518198594177	0
0	6271	1.518198594177	0.1
0	6282	1.526734594177	0.002
0	6282	1.526734594177	0
0	6282	1.526734594177	0.002
0	6282	1.526734594177	0.002
0	6282	1.526734594177	0.002
0	6295	1.526745938817	0
0	6295	1.526745938817	0.01
0	6302	1.526985938817	0.002
0	6302	1.526985938817	0.002
0	6312	1.527135938817	0
0	6312	1.527135938817	0.01
0	6321	1.535671938817	0.002
0	6321	1.535671938817	0.002
0	6333	1.535683273073	0.005
0	6340	1.535923273073	0.002
0	6347	1.536073283457	0
0	6347	1.536073283457	0.01
0	6368	1.544609283457	0.002
0	6368	1.544609283457	0.002
0	6380	1.544620617713	0.005
0	6387	1.544860617713	0.002
0	6390	1.544970617713	0
0	6390	1.544970617713	0
0	6390	1.544970617713	0.002
0	6391	1.544970617713	0
0	6391	1.544970617713	0.1
0	6398	1.553506617713	0.002
0	6398	1.553506617713	0
0	6398	1.553506617713	0.002
0	6398	1.553506617713	0.002
0	6398	1.553506617713	0.002
0	6411	1.553517962353	0
0	6411	1.553517962353	0.01
0	6418	1.553757962353	0.002
0	6418	1.553757962353	0.002
0	6428	1.553827962353	0
0	6428	1.553827962353	0.01
0	6441	1.562363962353	0.002
0	6441	1.562363962353	0.002
0	6453	1.562375296609	0.005
0	6460	1.562615296609	0.002
0	6463	1.562785296609	0
0	6463	1.562785296609	0
0	6463	1.562785296609	0.002
0	6464	1.562785296609	0
0	6464	1.562785296609	0.1
0	6471	1.571321296609	0.002
0	6471	1.571321296609	0
0	6471	1.571321296609	0.002
0	6471	1.571321296609	0.002
0	6471	1.571321296609	0.002
0	6484	1.571332641249	0
0	6484	1.571332641249	0.01
0	6491	1.571572641249	0.002
0	6491	1.571572641249	0.002
0	6497	1.571822641249	0
0	6497	1.571822641249	0
0	6497	1.571822641249	0.002
0	6498	1.571822641249	0
0	6498	1.571822641249	0.1
0	6513	1.580358641249	0.002
0	6513	1.580358641249	0
0	6513	1.580358641249	0.002
0	6513	1.580358641249	0.002
0	6513	1.580358641249	0.002
0	6526	1.580369985889	0
0	6526	1.580369985889	0.01
0	6533	1.580609985889	0.002
0	6533	1.580609985889	0.002
0	6543	1.580859985889	0
0	6543	1.580859985889	0.01
0	6552	1.589395985889	0.002
0	6552	1.589395985889	0.002
0	6564	1.589407320145	0.005
0	6571	1.589647320145	0.002
0	6578	1.589757330529	0
0	6578	1.589757330529	0.01
0	6591	1.598293330529	0.002
0	6591	1.598293330529	0.002
0	6603	1.598304664785	0.005
0	6610	1.598544664785	0.002
0	6613	1.598714664785	0
0	6613	1.598714664785	0
0	6613	1.598714664785	0.002
0	6614	1.598714664785	0
0	6614	1.598714664785	0.1
0	6621	1.607250664785	0.002
0	6621	1.607250664785	0
0	6621	1.607250664785	0.002
0	6621	1.607250664785	0.002
0	6621	1.607250664785	0.002
0	6634	1.607262009425	0
0	6634	1.607262009425	0.01
0	6641	1.607502009425	0.002
0	6641	1.607502009425	0.002
0	6647	1.607592009425	0
0	6647	1.607592009425	0
0	6647	1.607592009425	0.002
0	6648	1.607592009425	0
0	6648	1.607592009425	0.1
0	6659	1.616128009425	0.002
0	6659	1.616128009425	0
0	6659	1.616128009425	0.002
0	6659	1.616128009425	0.002
0	6659	1.616128009425	0.002
0	6672	1.616139354065	0
0	6672	1.616139354065	0.01
0	6679	1.616379354065	0.002
0	6679	1.616379354065	0.002
0	6689	1.616689354065	0
0	6689	1.616689354065	0.01
0	6706	1.625225354065	0.002
0	6706	1.625225354065	0.002
0	6718	1.625236688321	0.005
0	6725	1.625476688321	0.002
0	6728	1.625686688321	0
0	6728	1.625686688321	0
0	6728	1.625686688321	0.002
0	6729	1.625686688321	0
0	6729	1.625686688321	0.1
0	6736	1.634222688321	0.002
0	6736	1.634222688321	0
0	6736	1.634222688321	0.002
0	6736	1.634222688321	0.002
0	6736	1.634222688321	0.002
0	6749	1.634234032961	0
0	6749	1.634234032961	0.01
0	6756	1.634474032961	0.002
0	6756	1.634474032961	0.002
0	6762	1.634884032961	0
0	6762	1.634884032961	0
0	6762	1.634884032961	0.002
0	6763	1.634884032961	0
0	6763	1.634884032961	0.1
0	6770	1.643420032961	0.002
0	6770	1.643420032961	0
0	6770	1.643420032961	0.002
0	6770	1.643420032961	0.002
0	6770	1.643420032961	0.002
0	6783	1.643431377601	0
0	6783	1.643431377601	0.01
0	6790	1.643671377601	0.002
0	6790	1.643671377601	0.002
0	6800	1.643761377601	0
0	6800	1.643761377601	0.01
0	6809	1.652297377601	0.002
0	6809	1.652297377601	0.002
0	6821	1.652308711857	0.005
0	6828	1.652548711857	0.002
0	6831	1.652818711857	0
0	6831	1.652818711857	0
0	6831	1.652818711857	0.002
0	6832	1.652818711857	0
0	6832	1.652818711857	0.1
0	6843	1.661354711857	0.002
0	6843	1.661354711857	0
0	6843	1.661354711857	0.002
0	6843	1.661354711857	0.002
0	6843	1.661354711857	0.002
0	6856	1.661366056497	0
0	6856	1.661366056497	0.01
0	6863	1.661606056497	0.002
0	6863	1.661606056497	0.002
0	6869	1.661856056497	0
0	6869	1.661856056497	0
0	6869	1.661856056497	0.002
0	6870	1.661856056497	0
0	6870	1.661856056497	0.1
0	6877	1.670392056497	0.002
0	6877	1.670392056497	0
0	6877	1.670392056497	0.002
0	6877	1.670392056497	0.002
0	6877	1.670392056497	0.002
0	6890	1.670403401137	0
0	6890	1.670403401137	0.01
0	6897	1.670643401137	0.002
0	6897	1.670643401137	0.002
0	6907	1.670733401137	0
0	6907	1.670733401137	0.01
0	6916	1.679269401137	0.002
0	6916	1.679269401137	0.002
0	6928	1.679280735393	0.005
0	6935	1.679520735393	0.002
0	6942	1.679890745777	0
0	6942	1.679890745777	0.01
0	6955	1.688426745777	0.002
0	6955	1.688426745777	0.002
0	6967	1.688438080033	0.005
0	6974	1.688678080033	0.002
0	6977	1.688788080033	0
0	6977	1.688788080033	0
0	6977	1.688788080033	0.002
0	6978	1.688788080033	0
0	6978	1.688788080033	0.1
0	6985	1.697324080033	0.002
0	6985	1.697324080033	0
0	6985	1.697324080033	0.002
0	6985	1.697324080033	0.002
0	6985	1.697324080033	0.002
0	6998	1.697335424673	0
0	6998	1.697335424673	0.01
0	7005	1.697575424673	0.002
0	7005	1.697575424673	0.002
0	7015	1.697885424673	0
0	7015	1.697885424673	0.01
0	7032	1.706421424673	0.002
0	7032	1.706421424673	0.002
0	7044	1.706432758929	0.005
0	7051	1.706672758929	0.002
0	7062	1.706922769313	0
0	7062	1.706922769313	0.01
0	7079	1.715458769313	0.002
0	7079	1.715458769313	0.002
0	7091	1.715470103569	0.005
0	7098	1.715710103569	0.002
0	7101	1.715820103569	0
0	7101	1.715820103569	0
0	7101	1.715820103569	0.002
0	7102	1.715820103569	0
0	7102	1.715820103569	0.1
0	7109	1.724356103569	0.002
0	7109	1.724356103569	0
0	7109	1.724356103569	0.002
0	7109	1.724356103569	0.002
0	7109	1.724356103569	0.002
0	7122	1.724367448209	0
0	7122	1.724367448209	0.01
0	7129	1.724607448209	0.002
0	7129	1.724607448209	0.002
0	7139	1.724737448209	0
0	7139	1.724737448209	0.01
0	7148	1.733273448209	0.002
0	7148	1.733273448209	0.002
0	7160	1.733284782465	0.005
0	7167	1.733524782465	0.002
0	7170	1.733654782465	0
0	7170	1.733654782465	0
0	7170	1.733654782465	0.002
0	7171	1.733654782465	0
0	7171	1.733654782465	0.1
0	7182	1.742190782465	0.002
0	7182	1.742190782465	0
0	7182	1.742190782465	0.002
0	7182	1.742190782465	0.002
0	7182	1.742190782465	0.002
0	7195	1.742202127105	0
0	7195	1.742202127105	0.01
0	7202	1.742442127105	0.002
0	7202	1.742442127105	0.002
0	7212	1.742672127105	0
0	7212	1.742672127105	0.01
0	7221	1.751208127105	0.002
0	7221	1.751208127105	0.002
0	7233	1.751219461361	0.005
0	7240	1.751459461361	0.002
0	7243	1.751649461361	0
0	7243	1.751649461361	0
0	7243	1.751649461361	0.002
0	7244	1.751649461361	0
0	7244	1.751649461361	0.1
0	7251	1.760185461361	0.002
0	7251	1.760185461361	0
0	7251	1.760185461361	0.002
0	7251	1.760185461361	0.002
0	7251	1.760185461361	0.002
0	7264	1.760196806001	0
0	7264	1.760196806001	0.01
0	7271	1.760436806001	0.002
0	7271	1.760436806001	0.002
0	7281	1.760826806001	0
0	7281	1.760826806001	0.01
0	7290	1.769362806001	0.002
0	7290	1.769362806001	0.002
0	7302	1.769374140257	0.005
0	7309	1.769614140257	0.002
0	7312	1.769764140257	0
0	7312	1.769764140257	0
0	7312	1.769764140257	0.002
0	7313	1.769764140257	0
0	7313	1.769764140257	0.1
0	7320	1.778300140257	0.002
0	7320	1.778300140257	0
0	7320	1.778300140257	0.002
0	7320	1.778300140257	0.002
0	7320	1.778300140257	0.002
0	7333	1.778311484897	0
0	7333	1.778311484897	0.01
0	7340	1.778551484897	0.002
0	7340	1.778551484897	0.002
0	7346	1.778901484897	0
0	7346	1.778901484897	0
0	7346	1.778901484897	0.002
0	7347	1.778901484897	0
0	7347	1.778901484897	0.1
0	7354	1.787437484897	0.002
0	7354	1.787437484897	0
0	7354	1.787437484897	0.002
0	7354	1.787437484897	0.002
0	7354	1.787437484897	0.002
0	7367	1.787448829537	0
0	7367	1.787448829537	0.01
0	7374	1.787688829537	0.002
0	7374	1.787688829537	0.002
0	7384	1.787818829537	0
0	7384	1.787818829537	0.01
0	7397	1.796354829537	0.002
0	7397	1.796354829537	0.002
0	7409	1.796366163793	0.005
0	7416	1.796606163793	0.002
0	7423	1.796776174177	0
0	7423	1.796776174177	0.01
0	7436	1.805312174177	0.002
0	7436	1.805312174177	0.002
0	7448	1.805323508433	0.005
0	7455	1.805563508433	0.002
0	7458	1.805913508433	0
0	7458	1.805913508433	0
0	7458	1.805913508433	0.002
0	7459	1.805913508433	0
0	7459	1.805913508433	0.1
0	7466	1.814449508433	0.002
0	7466	1.814449508433	0
0	7466	1.814449508433	0.002
0	7466	1.814449508433	0.002
0	7466	1.814449508433	0.002
0	7479	1.814460853073	0
0	7479	1.814460853073	0.01
0	7486	1.814700853073	0.002
0	7486	1.814700853073	0.002
0	7496	1.814850853073	0
0	7496	1.814850853073	0.01
0	7505	1.823386853073	0.002
0	7505	1.823386853073	0.002
0	7517	1.823398187329	0.005
0	7524	1.823638187329	0.002
0	7531	1.823728197713	0
0	7531	1.823728197713	0.01
0	7544	1.832264197713	0.002
0	7544	1.832264197713	0.002
0	7556	1.832275531969	0.005
0	7563	1.832515531969	0.002
0	7570	1.832925531969	0
0	7570	1.832925531969	0
0	7570	1.832925531969	0.002
0	7571	1.832925531969	0
0	7571	1.832925531969	0.1
0	7578	1.841461531969	0.002
0	7578	1.841461531969	0
0	7578	1.841461531969	0.002
0	7578	1.841461531969	0.002
0	7578	1.841461531969	0.002
0	7591	1.841472876609	0
0	7591	1.841472876609	0.01
0	7598	1.841712876609	0.002
0	7598	1.841712876609	0.002
0	7608	1.841882876609	0
0	7608	1.841882876609	0.01
0	7617	1.850418876609	0.002
0	7617	1.850418876609	0.002
0	7629	1.850430210865	0.005
0	7636	1.850670210865	0.002
0	7639	1.851060210865	0
0	7639	1.851060210865	0
0	7639	1.851060210865	0.002
0	7640	1.851060210865	0
0	7640	1.851060210865	0.1
0	7647	1.859596210865	0.002
0	7647	1.859596210865	0
0	7647	1.859596210865	0.002
0	7647	1.859596210865	0.002
0	7647	1.859596210865	0.002
0	7660	1.859607555505	0
0	7660	1.859607555505	0.01
0	7667	1.859847555505	0.002
0	7667	1.859847555505	0.002
0	7673	1.859977555505	0
0	7673	1.859977555505	0
0	7673	1.859977555505	0.002
0	7674	1.859977555505	0
0	7674	1.859977555505	0.1
0	7681	1.868513555505	0.002
0	7681	1.868513555505	0
0	7681	1.868513555505	0.002
0	7681	1.868513555505	0.002
0	7681	1.868513555505	0.002
0	7694	1.868524900145	0
0	7694	1.868524900145	0.01
0	7705	1.868764900145	0.002
0	7705	1.868764900145	0.002
0	7715	1.868874900145	0
0	7715	1.868874900145	0.01
0	7728	1.877410900145	0.002
0	7728	1.877410900145	0.002
0	7740	1.877422234401	0.005
0	7747	1.877662234401	0.002
0	7750	1.877992234401	0
0	7750	1.877992234401	0
0	7750	1.877992234401	0.002
0	7751	1.877992234401	0
0	7751	1.877992234401	0.1
0	7758	1.886528234401	0.002
0	7758	1.886528234401	0
0	7758	1.886528234401	0.002
0	7758	1.886528234401	0.002
0	7758	1.886528234401	0.002
0	7771	1.886539579041	0
0	7771	1.886539579041	0.01
0	7778	1.886779579041	0.002
0	7778	1.886779579041	0.002
0	7788	1.886989579041	0
0	7788	1.886989579041	0.01
0	7797	1.895525579041	0.002
0	7797	1.895525579041	0.002
0	7809	1.895536913297	0.005
0	7816	1.895776913297	0.002
0	7819	1.896166913297	0
0	7819	1.896166913297	0
0	7819	1.896166913297	0.002
0	7820	1.896166913297	0
0	7820	1.896166913297	0.1
0	7835	1.904702913297	0.002
0	7835	1.904702913297	0
0	7835	1.904702913297	0.002
0	7835	1.904702913297	0.002
0	7835	1.904702913297	0.002
0	7848	1.904714257937	0
0	7848	1.904714257937	0.01
0	7855	1.904954257937	0.002
0	7855	1.904954257937	0.002
0	7865	1.905064257937	0
0	7865	1.905064257937	0.01
0	7874	1.913600257937	0.002
0	7874	1.913600257937	0.002
0	7886	1.913611592193	0.005
0	7893	1.913851592193	0.002
0	7896	1.914381592193	0
0	7896	1.914381592193	0
0	7896	1.914381592193	0.002
0	7897	1.914381592193	0
0	7897	1.914381592193	0.1
0	7908	1.922917592193	0.002
0	7908	1.922917592193	0
0	7908	1.922917592193	0.002
0	7908	1.922917592193	0.002
0	7908	1.922917592193	0.002
0	7921	1.922928936833	0
0	7921	1.922928936833	0.01
0	7928	1.923168936833	0.002
0	7928	1.923168936833	0.002
0	7938	1.923318936833	0
0	7938	1.923318936833	0.01
0	7947	1.931854936833	0.002
0	7947	1.931854936833	0.002
0	7959	1.931866271089	0.005
0	7966	1.932106271089	0.002
0	7969	1.932476271089	0
0	7969	1.932476271089	0
0	7969	1.932476271089	0.002
0	7970	1.932476271089	0
0	7970	1.932476271089	0.1
0	7977	1.941012271089	0.002
0	7977	1.941012271089	0
0	7977	1.941012271089	0.002
0	7977	1.941012271089	0.002
0	7977	1.941012271089	0.002
0	7990	1.941023615729	0
0	7990	1.941023615729	0.01
0	7997	1.941263615729	0.002
0	7997	1.941263615729	0.002
0	8007	1.941453615729	0
0	8007	1.941453615729	0.01
0	8020	1.949989615729	0.002
0	8020	1.949989615729	0.002
0	8032	1.950000949985	0.005
0	8039	1.950240949985	0.002
0	8046	1.950430960369	0
0	8046	1.950430960369	0.01
0	8067	1.958966960369	0.002
0	8067	1.958966960369	0.002
0	8079	1.958978294625	0.005
0	8086	1.959218294625	0.002
0	8089	1.959368294625	0
0	8089	1.959368294625	0
0	8089	1.959368294625	0.002
0	8090	1.959368294625	0
0	8090	1.959368294625	0.1
0	8101	1.967904294625	0.002
0	8101	1.967904294625	0
0	8101	1.967904294625	0.002
0	8101	1.967904294625	0.002
0	8101	1.967904294625	0.002
0	8114	1.967915639265	0
0	8114	1.967915639265	0.01
0	8121	1.968155639265	0.002
0	8121	1.968155639265	0.002
0	8131	1.968585639265	0
0	8131	1.968585639265	0.01
0	8140	1.977121639265	0.002
0	8140	1.977121639265	0.002
0	8152	1.977132973521	0.005
0	8159	1.977372973521	0.002
0	8162	1.977442973521	0
0	8162	1.977442973521	0
0	8162	1.977442973521	0.002
0	8163	1.977442973521	0
0	8163	1.977442973521	0.1
0	8174	1.985978973521	0.002
0	8174	1.985978973521	0
0	8174	1.985978973521	0.002
0	8174	1.985978973521	0.002
0	8174	1.985978973521	0.002
0	8187	1.985990318161	0
0	8187	1.985990318161	0.01
0	8194	1.986230318161	0.002
0	8194	1.986230318161	0.002
0	8204	1.986680318161	0
0	8204	1.986680318161	0.01
0	8217	1.995216318161	0.002
0	8217	1.995216318161	0.002
0	8229	1.995227652417	0.005
0	8236	1.995467652417	0.002
0	8239	1.995717652417	0
0	8239	1.995717652417	0
0	8239	1.995717652417	0.002
0	8240	1.995717652417	0
0	8240	1.995717652417	0.1
0	8247	2.004253652417	0.002
0	8247	2.004253652417	0
0	8247	2.004253652417	0.002
0	8247	2.004253652417	0.002
0	8247	2.004253652417	0.002
0	8260	2.004264997057	0
0	8260	2.004264997057	0.01
0	8267	2.004504997057	0.002
0	8267	2.004504997057	0.002
0	8273	2.004634997057	0
0	8273	2.004634997057	0
0	8273	2.004634997057	0.002
0	8274	2.004634997057	0
0	8274	2.004634997057	0.1
0	8281	2.013170997057	0.002
0	8281	2.013170997057	0
0	8281	2.013170997057	0.002
0	8281	2.013170997057	0.002
0	8281	2.013170997057	0.002
0	8294	2.013182341697	0
0	8294	2.013182341697	0.01
0	8301	2.013422341697	0.002
0	8301	2.013422341697	0.002
0	8307	2.013552341697	0
0	8307	2.013552341697	0
0	8307	2.013552341697	0.002
0	8308	2.013552341697	0
0	8308	2.013552341697	0.1
0	8315	2.022088341697	0.002
0	8315	2.022088341697	0
0	8315	2.022088341697	0.002
0	8315	2.022088341697	0.002
0	8315	2.022088341697	0.002
0	8328	2.022099686337	0
0	8328	2.022099686337	0.01
0	8335	2.022339686337	0.002
0	8335	2.022339686337	0.002
0	8345	2.022429686337	0
0	8345	2.022429686337	0.01
0	8354	2.030965686337	0.002
0	8354	2.030965686337	0.002
0	8366	2.030977020593	0.005
0	8373	2.031217020593	0.002
0	8376	2.031547020593	0
0	8376	2.031547020593	0
0	8376	2.031547020593	0.002
0	8377	2.031547020593	0
0	8377	2.031547020593	0.1
0	8384	2.040083020593	0.002
0	8384	2.040083020593	0
0	8384	2.040083020593	0.002
0	8384	2.040083020593	0.002
0	8384	2.040083020593	0.002
0	8397	2.040094365233	0
0	8397	2.040094365233	0.01
0	8408	2.040334365233	0.002
0	8408	2.040334365233	0.002
0	8418	2.040424365233	0
0	8418	2.040424365233	0.01
0	8427	2.048960365233	0.002
0	8427	2.048960365233	0.002
0	8439	2.048971699489	0.005
0	8446	2.049211699489	0.002
0	8453	2.049421709873	0
0	8453	2.049421709873	0.01
0	8462	2.057957709873	0.002
0	8462	2.057957709873	0.002
0	8474	2.057969044129	0.005
0	8481	2.058209044129	0.002
0	8484	2.058319044129	0
0	8484	2.058319044129	0
0	8484	2.058319044129	0.002
0	8485	2.058319044129	0
0	8485	2.058319044129	0.1
0	8492	2.066855044129	0.002
0	8492	2.066855044129	0
0	8492	2.066855044129	0.002
0	8492	2.066855044129	0.002
0	8492	2.066855044129	0.002
0	8505	2.066866388769	0
0	8505	2.066866388769	0.01
0	8512	2.067106388769	0.002
0	8512	2.067106388769	0.002
0	8522	2.067696388769	0
0	8522	2.067696388769	0
0	8522	2.067696388769	0.002
0	8525	2.067696388769	0
0	8525	2.067696388769	0.1
0	8539	2.076232388769	0.002
0	8539	2.076232388769	0
0	8539	2.076232388769	0.002
0	8539	2.076232388769	0.002
0	8539	2.076232388769	0.002
0	8555	2.077442388769	0
0	8555	2.077442388769	0.01
0	8570	2.085978388769	0.002
0	8570	2.085978388769	0.002
0	8582	2.085989723025	0.005
0	8589	2.086229723025	0.002
0	8598	2.086679723025	0
0	8598	2.086679723025	0
0	8598	2.086679723025	0.002
0	8599	2.086679723025	0
0	8599	2.086679723025	0.1
0	8604	2.095215723025	0.002
0	8604	2.095215723025	0
0	8604	2.095215723025	0.002
0	8604	2.095215723025	0.002
0	8604	2.095215723025	0.002
0	8617	2.095227067665	0
0	8617	2.095227067665	0.01
0	8624	2.095467067665	0.002
0	8624	2.095467067665	0.002
0	8630	2.095577067665	0
0	8630	2.095577067665	0
0	8630	2.095577067665	0.002
0	8631	2.095577067665	0
0	8631	2.095577067665	0.1
0	8638	2.104113067665	0.002
0	8638	2.104113067665	0
0	8638	2.104113067665	0.002
0	8638	2.104113067665	0.002
0	8638	2.104113067665	0.002
0	8651	2.104124412305	0
0	8651	2.104124412305	0.01
0	8658	2.104364412305	0.002
0	8658	2.104364412305	0.002
0	8668	2.104514412305	0
0	8668	2.104514412305	0.01
0	8677	2.113050412305	0.002
0	8677	2.113050412305	0.002
0	8689	2.113061746561	0.005
0	8696	2.113301746561	0.002
0	8703	2.113591756945	0
0	8703	2.113591756945	0.01
0	8716	2.122127756945	0.002
0	8716	2.122127756945	0.002
0	8728	2.122139091201	0.005
0	8735	2.122379091201	0.002
0	8738	2.122469091201	0
0	8738	2.122469091201	0
0	8738	2.122469091201	0.002
0	8739	2.122469091201	0
0	8739	2.122469091201	0.1
0	8746	2.131005091201	0.002
0	8746	2.131005091201	0
0	8746	2.131005091201	0.002
0	8746	2.131005091201	0.002
0	8746	2.131005091201	0.002
0	8759	2.131016435841	0
0	8759	2.131016435841	0.01
0	8766	2.131256435841	0.002
0	8766	2.131256435841	0.002
0	8772	2.131346435841	0
0	8772	2.131346435841	0
0	8772	2.131346435841	0.002
0	8773	2.131346435841	0
0	8773	2.131346435841	0.1
0	8784	2.139882435841	0.002
0	8784	2.139882435841	0
0	8784	2.139882435841	0.002
0	8784	2.139882435841	0.002
0	8784	2.139882435841	0.002
0	8797	2.139893780481	0
0	8797	2.139893780481	0.01
0	8804	2.140133780481	0.002
0	8804	2.140133780481	0.002
0	8810	2.140243780481	0
0	8810	2.140243780481	0
0	8810	2.140243780481	0.002
0	8811	2.140243780481	0
0	8811	2.140243780481	0.1
0	8818	2.148779780481	0.002
0	8818	2.148779780481	0
0	8818	2.148779780481	0.002
0	8818	2.148779780481	0.002
0	8818	2.148779780481	0.002
0	8831	2.148791125121	0
0	8831	2.148791125121	0.01
0	8838	2.149031125121	0.002
0	8838	2.149031125121	0.002
0	8848	2.149141125121	0
0	8848	2.149141125121	0.01
0	8869	2.157677125121	0.002
0	8869	2.157677125121	0.002
0	8881	2.157688459377	0.005
0	8888	2.157928459377	0.002
0	8891	2.158158459377	0
0	8891	2.158158459377	0
0	8891	2.158158459377	0.002
0	8892	2.158158459377	0
0	8892	2.158158459377	0.1
0	8903	2.166694459377	0.002
0	8903	2.166694459377	0
0	8903	2.166694459377	0.002
0	8903	2.166694459377	0.002
0	8903	2.166694459377	0.002
0	8916	2.166705804017	0
0	8916	2.166705804017	0.01
0	8923	2.166945804017	0.002
0	8923	2.166945804017	0.002
0	8929	2.167055804017	0
0	8929	2.167055804017	0
0	8929	2.167055804017	0.002
0	8930	2.167055804017	0
0	8930	2.167055804017	0.1
0	8941	2.175591804017	0.002
0	8941	2.175591804017	0
0	8941	2.175591804017	0.002
0	8941	2.175591804017	0.002
0	8941	2.175591804017	0.002
0	8954	2.175603148657	0
0	8954	2.175603148657	0.01
0	8961	2.175843148657	0.002
0	8961	2.175843148657	0.002
0	8967	2.175953148657	0
0	8967	2.175953148657	0
0	8967	2.175953148657	0.002
0	8968	2.175953148657	0
0	8968	2.175953148657	0.1
0	8979	2.184489148657	0.002
0	8979	2.184489148657	0
0	8979	2.184489148657	0.002
0	8979	2.184489148657	0.002
0	8979	2.184489148657	0.002
0	8992	2.184500493297	0
0	8992	2.184500493297	0.01
0	8999	2.184740493297	0.002
0	8999	2.184740493297	0.002
0	9005	2.184950493297	0
0	9005	2.184950493297	0
0	9005	2.184950493297	0.002
0	9006	2.184950493297	0
0	9006	2.184950493297	0.1
0	9021	2.193486493297	0.002
0	9021	2.193486493297	0
0	9021	2.193486493297	0.002
0	9021	2.193486493297	0.002
0	9021	2.193486493297	0.002
0	9034	2.193497837937	0
0	9034	2.193497837937	0.01
0	9041	2.193737837937	0.002
0	9041	2.193737837937	0.002
0	9051	2.193807837937	0
0	9051	2.193807837937	0.01
0	9068	2.202343837937	0.002
0	9068	2.202343837937	0.002
0	9080	2.202355172193	0.005
0	9087	2.202595172193	0.002
0	9094	2.202825182577	0
0	9094	2.202825182577	0.01
0	9107	2.211361182577	0.002
0	9107	2.211361182577	0.002
0	9119	2.211372516833	0.005
0	9126	2.211612516833	0.002
0	9133	2.211682527217	0
0	9133	2.211682527217	0.01
0	9146	2.220218527217	0.002
0	9146	2.220218527217	0.002
0	9158	2.220229861473	0.005
0	9165	2.220469861473	0.002
0	9168	2.220819861473	0
0	9168	2.220819861473	0
0	9168	2.220819861473	0.002
0	9169	2.220819861473	0
0	9169	2.220819861473	0.1
0	9184	2.229355861473	0.002
0	9184	2.229355861473	0
0	9184	2.229355861473	0.002
0	9184	2.229355861473	0.002
0	9184	2.229355861473	0.002
0	9197	2.229367206113	0
0	9197	2.229367206113	0.01
0	9204	2.229607206113	0.002
0	9204	2.229607206113	0.002
0	9210	2.229717206113	0
0	9210	2.229717206113	0
0	9210	2.229717206113	0.002
0	9211	2.229717206113	0
0	9211	2.229717206113	0.1
0	9222	2.238253206113	0.002
0	9222	2.238253206113	0
0	9222	2.238253206113	0.002
0	9222	2.238253206113	0.002
0	9222	2.238253206113	0.002
0	9235	2.238264550753	0
0	9235	2.238264550753	0.01
0	9242	2.238504550753	0.002
0	9242	2.238504550753	0.002
0	9252	2.238794550753	0
0	9252	2.238794550753	0
0	9252	2.238794550753	0.002
0	9255	2.238794550753	0
0	9255	2.238794550753	0.1
0	9277	2.247330550753	0.002
0	9277	2.247330550753	0
0	9277	2.247330550753	0.002
0	9277	2.247330550753	0.002
0	9277	2.247330550753	0.002
0	9291	2.248060550753	0
0	9291	2.248060550753	0.01
0	9300	2.256596550753	0.002
0	9300	2.256596550753	0.002
0	9312	2.256607885009	0.005
0	9319	2.256847885009	0.002
0	9326	2.256897895393	0
0	9326	2.256897895393	0.01
0	9339	2.265433895393	0.002
0	9339	2.265433895393	0.002
0	9351	2.265445229649	0.005
0	9358	2.265685229649	0.002
0	9365	2.265955240033	0
0	9365	2.265955240033	0.01
0	9378	2.274491240033	0.002
0	9378	2.274491240033	0.002
0	9390	2.274502574289	0.005
0	9397	2.274742574289	0.002
0	9400	2.274812574289	0
0	9400	2.274812574289	0
0	9400	2.274812574289	0.002
0	9401	2.274812574289	0
[...]
45	6255	1.517867259921	1
45	6256	1.517867259921	2
45	6261	1.518107259921	1
45	6261	1.518107259921	0
45	6328	1.535681938817	1
45	6329	1.535681938817	2
45	6334	1.535921938817	1
45	6334	1.535921938817	0
45	6375	1.544619283457	1
45	6376	1.544619283457	2
45	6381	1.544859283457	1
45	6381	1.544859283457	0
45	6448	1.562373962353	1
45	6449	1.562373962353	2
45	6454	1.562613962353	1
45	6454	1.562613962353	0
45	6559	1.589405985889	1
45	6560	1.589405985889	2
45	6565	1.589645985889	1
45	6565	1.589645985889	0
45	6598	1.598303330529	1
45	6599	1.598303330529	2
45	6604	1.598543330529	1
45	6604	1.598543330529	0
45	6713	1.625235354065	1
45	6714	1.625235354065	2
45	6719	1.625475354065	1
45	6719	1.625475354065	0
45	6816	1.652307377601	1
45	6817	1.652307377601	2
45	6822	1.652547377601	1
45	6822	1.652547377601	0
45	6923	1.679279401137	1
45	6924	1.679279401137	2
45	6929	1.679519401137	1
45	6929	1.679519401137	0
45	6962	1.688436745777	1
45	6963	1.688436745777	2
45	6968	1.688676745777	1
45	6968	1.688676745777	0
45	7039	1.706431424673	1
45	7040	1.706431424673	2
45	7045	1.706671424673	1
45	7045	1.706671424673	0
45	7086	1.715468769313	1
45	7087	1.715468769313	2
45	7092	1.715708769313	1
45	7092	1.715708769313	0
45	7155	1.733283448209	1
45	7156	1.733283448209	2
45	7161	1.733523448209	1
45	7161	1.733523448209	0
45	7228	1.751218127105	1
45	7229	1.751218127105	2
45	7234	1.751458127105	1
45	7234	1.751458127105	0
45	7297	1.769372806001	1
45	7298	1.769372806001	2
45	7303	1.769612806001	1
45	7303	1.769612806001	0
45	7404	1.796364829537	1
45	7405	1.796364829537	2
45	7410	1.796604829537	1
45	7410	1.796604829537	0
45	7443	1.805322174177	1
45	7444	1.805322174177	2
45	7449	1.805562174177	1
45	7449	1.805562174177	0
45	7512	1.823396853073	1
45	7513	1.823396853073	2
45	7518	1.823636853073	1
45	7518	1.823636853073	0
45	7551	1.832274197713	1
45	7552	1.832274197713	2
45	7557	1.832514197713	1
45	7557	1.832514197713	0
45	7624	1.850428876609	1
45	7625	1.850428876609	2
45	7630	1.850668876609	1
45	7630	1.850668876609	0
45	7735	1.877420900145	1
45	7736	1.877420900145	2
45	7741	1.877660900145	1
45	7741	1.877660900145	0
45	7804	1.895535579041	1
45	7805	1.895535579041	2
45	7810	1.895775579041	1
45	7810	1.895775579041	0
45	7881	1.913610257937	1
45	7882	1.913610257937	2
45	7887	1.913850257937	1
45	7887	1.913850257937	0
45	7954	1.931864936833	1
45	7955	1.931864936833	2
45	7960	1.932104936833	1
45	7960	1.932104936833	0
45	8027	1.949999615729	1
45	8028	1.949999615729	2
45	8033	1.950239615729	1
45	8033	1.950239615729	0
45	8074	1.958976960369	1
45	8075	1.958976960369	2
45	8080	1.959216960369	1
45	8080	1.959216960369	0
45	8147	1.977131639265	1
45	8148	1.977131639265	2
45	8153	1.977371639265	1
45	8153	1.977371639265	0
45	8224	1.995226318161	1
45	8225	1.995226318161	2
45	8230	1.995466318161	1
45	8230	1.995466318161	0
45	8361	2.030975686337	1
45	8362	2.030975686337	2
45	8367	2.031215686337	1
45	8367	2.031215686337	0
45	8434	2.048970365233	1
45	8435	2.048970365233	2
45	8440	2.049210365233	1
45	8440	2.049210365233	0
45	8469	2.057967709873	1
45	8470	2.057967709873	2
45	8475	2.058207709873	1
45	8475	2.058207709873	0
45	8577	2.085988388769	1
45	8578	2.085988388769	2
45	8583	2.086228388769	1
45	8583	2.086228388769	0
45	8684	2.113060412305	1
45	8685	2.113060412305	2
45	8690	2.113300412305	1
45	8690	2.113300412305	0
45	8723	2.122137756945	1
45	8724	2.122137756945	2
45	8729	2.122377756945	1
45	8729	2.122377756945	0
45	8876	2.157687125121	1
45	8877	2.157687125121	2
45	8882	2.157927125121	1
45	8882	2.157927125121	0
45	9075	2.202353837937	1
45	9076	2.202353837937	2
45	9081	2.202593837937	1
45	9081	2.202593837937	0
45	9114	2.211371182577	1
45	9115	2.211371182577	2
45	9120	2.211611182577	1
45	9120	2.211611182577	0
45	9153	2.220228527217	1
45	9154	2.220228527217	2
45	9159	2.220468527217	1
45	9159	2.220468527217	0
45	9307	2.256606550753	1
45	9308	2.256606550753	2
45	9313	2.256846550753	1
45	9313	2.256846550753	0
45	9346	2.265443895393	1
45	9347	2.265443895393	2
45	9352	2.265683895393	1
45	9352	2.265683895393	0
45	9385	2.274501240033	1
45	9386	2.274501240033	2
45	9391	2.274741240033	1
45	9391	2.274741240033	0
45	9496	2.301393263569	1
45	9497	2.301393263569	2
45	9502	2.301633263569	1
45	9502	2.301633263569	0
45	9573	2.319347942465	1
45	9574	2.319347942465	2
45	9579	2.319587942465	1
45	9579	2.319587942465	0
45	9692	2.346059966001	1
45	9693	2.346059966001	2
45	9698	2.346299966001	1
45	9698	2.346299966001	0
45	9727	2.355017310641	1
45	9728	2.355017310641	2
45	9733	2.355257310641	1
45	9733	2.355257310641	0
45	9762	2.363874655281	1
45	9763	2.363874655281	2
45	9768	2.364114655281	1
45	9768	2.364114655281	0
45	9831	2.381789334177	1
45	9832	2.381789334177	2
45	9837	2.382029334177	1
45	9837	2.382029334177	0
45	9908	2.399964013073	1
45	9909	2.399964013073	2
45	9914	2.400204013073	1
45	9914	2.400204013073	0
45	10073	2.435893381249	1
45	10074	2.435893381249	2
45	10079	2.436133381249	1
45	10079	2.436133381249	0
45	10150	2.453828060145	1
45	10151	2.453828060145	2
45	10156	2.454068060145	1
45	10156	2.454068060145	0
45	10223	2.471962739041	1
45	10224	2.471962739041	2
45	10229	2.472202739041	1
45	10229	2.472202739041	0
45	10258	2.481040083681	1
45	10259	2.481040083681	2
45	10264	2.481280083681	1
45	10264	2.481280083681	0
45	10370	2.508660762577	1
45	10371	2.508660762577	2
45	10376	2.508900762577	1
45	10376	2.508900762577	0
45	10493	2.535692786113	1
45	10494	2.535692786113	2
45	10499	2.535932786113	1
45	10499	2.535932786113	0
45	10528	2.544710130753	1
45	10529	2.544710130753	2
45	10534	2.544950130753	1
45	10534	2.544950130753	0
45	10601	2.562504809649	1
45	10602	2.562504809649	2
45	10607	2.562744809649	1
45	10607	2.562744809649	0
45	10640	2.571482154289	1
45	10641	2.571482154289	2
45	10646	2.571722154289	1
45	10646	2.571722154289	0
45	10675	2.580499498929	1
45	10676	2.580499498929	2
45	10681	2.580739498929	1
45	10681	2.580739498929	0
45	10756	2.598214177825	1
45	10757	2.598214177825	2
45	10762	2.598454177825	1
45	10762	2.598454177825	0
45	10837	2.616508856721	1
45	10838	2.616508856721	2
45	10843	2.616748856721	1
45	10843	2.616748856721	0
45	10872	2.625586201361	1
45	10873	2.625586201361	2
45	10878	2.625826201361	1
45	10878	2.625826201361	0
45	10919	2.634423546001	1
45	10920	2.634423546001	2
45	10925	2.634663546001	1
45	10925	2.634663546001	0
45	11092	2.669972914177	1
45	11093	2.669972914177	2
45	11102	2.670212914177	1
45	11102	2.670212914177	0
45	11131	2.678930258817	1
45	11132	2.678930258817	2
45	11137	2.679170258817	1
45	11137	2.679170258817	0
45	11166	2.687807603457	1
45	11167	2.687807603457	2
45	11172	2.688047603457	1
45	11172	2.688047603457	0
45	11327	2.723716971633	1
45	11328	2.723716971633	2
45	11333	2.723956971633	1
45	11333	2.723956971633	0
45	11366	2.732814316273	1
45	11367	2.732814316273	2
45	11372	2.733054316273	1
45	11372	2.733054316273	0
45	11409	2.741811660913	1
45	11410	2.741811660913	2
45	11415	2.742051660913	1
45	11415	2.742051660913	0
45	11490	2.759586339809	1
45	11491	2.759586339809	2
45	11496	2.759826339809	1
45	11496	2.759826339809	0
45	11525	2.768443684449	1
45	11526	2.768443684449	2
45	11531	2.768683684449	1
45	11531	2.768683684449	0
45	11568	2.777381029089	1
45	11569	2.777381029089	2
45	11574	2.777621029089	1
45	11574	2.777621029089	0
45	11641	2.795595707985	1
45	11642	2.795595707985	2
45	11647	2.795835707985	1
45	11647	2.795835707985	0
45	11676	2.804593052625	1
45	11677	2.804593052625	2
45	11682	2.804833052625	1
45	11682	2.804833052625	0
45	11832	2.840502420801	1
45	11833	2.840502420801	2
45	11838	2.840742420801	1
45	11838	2.840742420801	0
45	11909	2.858457099697	1
45	11910	2.858457099697	2
45	11915	2.858697099697	1
45	11915	2.858697099697	0
45	11944	2.867394444337	1
45	11945	2.867394444337	2
45	11950	2.867634444337	1
45	11950	2.867634444337	0
45	12017	2.885689123233	1
45	12018	2.885689123233	2
45	12023	2.885929123233	1
45	12023	2.885929123233	0
45	12052	2.894626467873	1
45	12053	2.894626467873	2
45	12058	2.894866467873	1
45	12058	2.894866467873	0
45	12128	2.912841146769	1
45	12129	2.912841146769	2
45	12134	2.913081146769	1
45	12134	2.913081146769	0
45	12200	2.930555825665	1
45	12201	2.930555825665	2
45	12206	2.930795825665	1
45	12206	2.930795825665	0
45	12302	2.957667849201	1
45	12303	2.957667849201	2
45	12308	2.957907849201	1
45	12308	2.957907849201	0
45	12422	2.985108528097	1
45	12423	2.985108528097	2
45	12428	2.985348528097	1
45	12428	2.985348528097	0
45	12491	3.003163206993	1
45	12492	3.003163206993	2
45	12497	3.003403206993	1
45	12497	3.003403206993	0
45	12568	3.021397885889	1
45	12569	3.021397885889	2
45	12574	3.021637885889	1
45	12574	3.021637885889	0
45	12645	3.039252564785	1
45	12646	3.039252564785	2
45	12651	3.039492564785	1
45	12651	3.039492564785	0
45	12756	3.066124588321	1
45	12757	3.066124588321	2
45	12762	3.066364588321	1
45	12762	3.066364588321	0
45	12829	3.084199267217	1
45	12830	3.084199267217	2
45	12835	3.084439267217	1
45	12835	3.084439267217	0
45	12940	3.111071290753	1
45	12941	3.111071290753	2
45	12946	3.111311290753	1
45	12946	3.111311290753	0
45	13051	3.138163314289	1
45	13052	3.138163314289	2
45	13057	3.138403314289	1
45	13057	3.138403314289	0
45	13120	3.156237993185	1
45	13121	3.156237993185	2
45	13126	3.156477993185	1
45	13126	3.156477993185	0
45	13189	3.174112672081	1
45	13190	3.174112672081	2
45	13195	3.174352672081	1
45	13195	3.174352672081	0
45	13270	3.192347350977	1
45	13271	3.192347350977	2
45	13276	3.192587350977	1
45	13276	3.192587350977	0
45	13309	3.201224695617	1
45	13310	3.201224695617	2
45	13315	3.201464695617	1
45	13315	3.201464695617	0
45	13386	3.219079374513	1
45	13387	3.219079374513	2
45	13392	3.219319374513	1
45	13392	3.219319374513	0
45	13421	3.227996719153	1
45	13422	3.227996719153	2
45	13427	3.228236719153	1
45	13427	3.228236719153	0
45	13460	3.237014063793	1
45	13461	3.237014063793	2
45	13466	3.237254063793	1
45	13466	3.237254063793	0
45	13560	3.264474742689	1
45	13561	3.264474742689	2
45	13566	3.264714742689	1
45	13566	3.264714742689	0
45	13595	3.273312087329	1
45	13596	3.273312087329	2
45	13601	3.273552087329	1
45	13601	3.273552087329	0
45	13709	3.300384110865	1
45	13710	3.300384110865	2
45	13715	3.300624110865	1
45	13715	3.300624110865	0
45	13812	3.327496134401	1
45	13813	3.327496134401	2
45	13818	3.327736134401	1
45	13818	3.327736134401	0
45	13923	3.354368157937	1
45	13924	3.354368157937	2
45	13929	3.354608157937	1
45	13929	3.354608157937	0
45	14031	3.381468836833	1
45	14032	3.381468836833	2
45	14037	3.381708836833	1
45	14037	3.381708836833	0
45	14066	3.390506181473	1
45	14067	3.390506181473	2
45	14072	3.390746181473	1
45	14072	3.390746181473	0
45	14101	3.399403526113	1
45	14102	3.399403526113	2
45	14107	3.399643526113	1
45	14107	3.399643526113	0
45	14136	3.408360870753	1
45	14137	3.408360870753	2
45	14142	3.408600870753	1
45	14142	3.408600870753	0
45	14284	3.444690238929	1
45	14285	3.444690238929	2
45	14290	3.444930238929	1
45	14290	3.444930238929	0
45	14323	3.453747583569	1
45	14324	3.453747583569	2
45	14329	3.453987583569	1
45	14329	3.453987583569	0
45	14609	3.525234985665	1
45	14610	3.525234985665	2
45	14615	3.525474985665	1
45	14615	3.525474985665	0
45	14644	3.534192330305	1
45	14645	3.534192330305	2
45	14650	3.534432330305	1
45	14650	3.534432330305	0
45	14687	3.543149674945	1
45	14688	3.543149674945	2
45	14693	3.543389674945	1
45	14693	3.543389674945	0
45	14818	3.570261698481	1
45	14819	3.570261698481	2
45	14824	3.570501698481	1
45	14824	3.570501698481	0
45	14887	3.588536377377	1
45	14888	3.588536377377	2
45	14893	3.588776377377	1
45	14893	3.588776377377	0
45	14994	3.615348400913	1
45	14995	3.615348400913	2
45	15000	3.615588400913	1
45	15000	3.615588400913	0
45	15067	3.633523079809	1
45	15068	3.633523079809	2
45	15073	3.633763079809	1
45	15073	3.633763079809	0
45	15110	3.642600424449	1
45	15111	3.642600424449	2
45	15116	3.642840424449	1
45	15116	3.642840424449	0
45	15187	3.660595103345	1
45	15188	3.660595103345	2
45	15193	3.660835103345	1
45	15193	3.660835103345	0
45	15290	3.687727126881	1
45	15291	3.687727126881	2
45	15296	3.687967126881	1
45	15296	3.687967126881	0
45	15473	3.732453839697	1
45	15474	3.732453839697	2
45	15479	3.732693839697	1
45	15479	3.732693839697	0
45	15512	3.741291184337	1
45	15513	3.741291184337	2
45	15518	3.741531184337	1
45	15518	3.741531184337	0
45	15551	3.750268528977	1
45	15552	3.750268528977	2
45	15557	3.750508528977	1
45	15557	3.750508528977	0
45	15586	3.759205873617	1
45	15587	3.759205873617	2
45	15592	3.759445873617	1
45	15592	3.759445873617	0
45	15625	3.768123218257	1
45	15626	3.768123218257	2
45	15631	3.768363218257	1
45	15631	3.768363218257	0
45	15694	3.785877897153	1
45	15695	3.785877897153	2
45	15700	3.786117897153	1
45	15700	3.786117897153	0
45	15801	3.812949920689	1
45	15802	3.812949920689	2
45	15807	3.813189920689	1
45	15807	3.813189920689	0
45	15882	3.830864599585	1
45	15883	3.830864599585	2
45	15888	3.831104599585	1
45	15888	3.831104599585	0
45	15921	3.840001944225	1
45	15922	3.840001944225	2
45	15927	3.840241944225	1
45	15927	3.840241944225	0
45	15960	3.848899288865	1
45	15961	3.848899288865	2
45	15966	3.849139288865	1
45	15966	3.849139288865	0
45	16029	3.866893967761	1
45	16030	3.866893967761	2
45	16035	3.867133967761	1
45	16035	3.867133967761	0
45	16111	3.885197312401	1
45	16112	3.885197312401	2
45	16117	3.885437312401	1
45	16117	3.885437312401	0
45	16154	3.894534657041	1
45	16155	3.894534657041	2
45	16164	3.894774657041	1
45	16164	3.894774657041	0
45	16193	3.903392001681	1
45	16194	3.903392001681	2
45	16199	3.903632001681	1
45	16199	3.903632001681	0
45	16228	3.912309346321	1
45	16229	3.912309346321	2
45	16234	3.912549346321	1
45	16234	3.912549346321	0
45	16300	3.930164025217	1
45	16301	3.930164025217	2
45	16306	3.930404025217	1
45	16306	3.930404025217	0
45	16368	3.948758704113	1
45	16369	3.948758704113	2
45	16374	3.948998704113	1
45	16374	3.948998704113	0
45	16486	3.975790727649	1
45	16487	3.975790727649	2
45	16492	3.976030727649	1
45	16492	3.976030727649	0
45	16529	3.984988072289	1
45	16530	3.984988072289	2
45	16535	3.985228072289	1
45	16535	3.985228072289	0
45	16673	4.020997440465	1
45	16674	4.020997440465	2
45	16679	4.021237440465	1
45	16679	4.021237440465	0
45	16754	4.039212119361	1
45	16755	4.039212119361	2
45	16760	4.039452119361	1
45	16760	4.039452119361	0
45	16831	4.057106798257	1
45	16832	4.057106798257	2
45	16837	4.057346798257	1
45	16837	4.057346798257	0
45	16866	4.066024142897	1
45	16867	4.066024142897	2
45	16872	4.066264142897	1
45	16872	4.066264142897	0
45	16901	4.074881487537	1
45	16902	4.074881487537	2
45	16907	4.075121487537	1
45	16907	4.075121487537	0
45	16973	4.092956166433	1
45	16974	4.092956166433	2
45	16979	4.093196166433	1
45	16979	4.093196166433	0
45	17049	4.111010845329	1
45	17050	4.111010845329	2
45	17055	4.111250845329	1
45	17055	4.111250845329	0
45	17129	4.129165524225	1
45	17130	4.129165524225	2
45	17135	4.129405524225	1
45	17135	4.129405524225	0
45	17239	4.156197547761	1
45	17240	4.156197547761	2
45	17245	4.156437547761	1
45	17245	4.156437547761	0
45	17274	4.165374892401	1
45	17275	4.165374892401	2
45	17280	4.165614892401	1
45	17280	4.165614892401	0
45	17384	4.192466915937	1
45	17385	4.192466915937	2
45	17390	4.192706915937	1
45	17390	4.192706915937	0
45	17457	4.210741594833	1
45	17458	4.210741594833	2
45	17463	4.210981594833	1
45	17463	4.210981594833	0
45	17526	4.228896273729	1
45	17527	4.228896273729	2
45	17532	4.229136273729	1
45	17532	4.229136273729	0
45	17561	4.237793618369	1
45	17562	4.237793618369	2
45	17567	4.238033618369	1
45	17567	4.238033618369	0
45	17629	4.255768297265	1
45	17630	4.255768297265	2
45	17635	4.256008297265	1
45	17635	4.256008297265	0
45	17769	4.292117665441	1
45	17770	4.292117665441	2
45	17779	4.292357665441	1
45	17779	4.292357665441	0
45	17846	4.310412344337	1
45	17847	4.310412344337	2
45	17852	4.310652344337	1
45	17852	4.310652344337	0
45	17885	4.319369688977	1
45	17886	4.319369688977	2
45	17891	4.319609688977	1
45	17891	4.319609688977	0
45	18000	4.346181712513	1
45	18001	4.346181712513	2
45	18006	4.346421712513	1
45	18006	4.346421712513	0
45	18112	4.373402391409	1
45	18113	4.373402391409	2
45	18118	4.373642391409	1
45	18118	4.373642391409	0
45	18258	4.409740414945	1
45	18259	4.409740414945	2
45	18264	4.409980414945	1
45	18264	4.409980414945	0
45	18297	4.418617759585	1
45	18298	4.418617759585	2
45	18303	4.418857759585	1
45	18303	4.418857759585	0
45	18336	4.427555104225	1
45	18337	4.427555104225	2
45	18342	4.427795104225	1
45	18342	4.427795104225	0
45	18371	4.436472448865	1
45	18372	4.436472448865	2
45	18377	4.436712448865	1
45	18377	4.436712448865	0
45	18443	4.454767127761	1
45	18444	4.454767127761	2
45	18449	4.455007127761	1
45	18449	4.455007127761	0
45	18557	4.481799151297	1
45	18558	4.481799151297	2
45	18563	4.482039151297	1
45	18563	4.482039151297	0
45	18592	4.490816495937	1
45	18593	4.490816495937	2
45	18598	4.491056495937	1
45	18598	4.491056495937	0
45	18737	4.526954519473	1
45	18738	4.526954519473	2
45	18743	4.527194519473	1
45	18743	4.527194519473	0
45	18806	4.544709198369	1
45	18807	4.544709198369	2
45	18812	4.544949198369	1
45	18812	4.544949198369	0
46	365	0.1	240000
46	783	0.2	320000
46	1158	0.3	160000
46	1623	0.4	400000
46	2051	0.5	480000
46	2474	0.6	400000
46	2867	0.7	480000
46	3309	0.8	560000
46	3725	0.9	480000
46	4160	1	480000
46	4575	1.1	560000
46	4977	1.2	400000
46	5411	1.3	480000
46	5782	1.4	320000
46	6219	1.5	400000
46	6712	1.6	560000
46	7038	1.7	320000
46	7442	1.8	480000
46	7880	1.9	480000
46	8360	2	480000
46	8683	2.1	320000
46	9074	2.2	240000
46	9495	2.3	480000
46	10072	2.4	560000
46	10369	2.5	320000
46	10836	2.6	560000
46	11326	2.7	480000
46	11675	2.8	560000
46	12127	2.9	480000
46	12490	3	320000
46	12939	3.1	400000
46	13308	3.2	400000
46	13708	3.3	480000
46	14135	3.4	480000
46	14608	3.5	240000
46	14993	3.6	400000
46	15472	3.7	400000
46	15800	3.8	480000
46	16192	3.9	560000
46	16672	4	480000
46	17048	4.1	480000
46	17456	4.2	400000
46	17845	4.3	400000
46	18257	4.4	320000
46	18736	4.5	560000
47	1007	0.265112067518	1055
47	2760	0.678418441326	1055
47	2908	0.715016475246	1055
47	3758	0.914566660766	1055
47	8535	2.07623231779	1055
47	9273	2.247330479774	1055
47	10328	2.499004691598	1055
47	12342	2.966715122862	1055
47	13526	3.25483867171	1055
47	13989	3.372512765854	1055
47	14393	3.471492191486	1055
47	16061	3.875901241422	1055
47	18074	4.36428632043	1055
47	18224	4.400424343966	1055
47	18703	4.517838448494	1055
48	1008	0.265112067518	1055
48	2761	0.678418441326	1055
48	2909	0.715016475246	1055
48	3759	0.914566660766	1055
48	8536	2.07623231779	1055
48	9274	2.247330479774	1055
48	10329	2.499004691598	1055
48	12343	2.966715122862	1055
48	13527	3.25483867171	1055
48	13990	3.372512765854	1055
48	14394	3.471492191486	1055
48	16062	3.875901241422	1055
48	18075	4.36428632043	1055
48	18225	4.400424343966	1055
48	18704	4.517838448494	1055
49	1012	0.265112138497	1055
49	2765	0.678418512305	1055
49	2913	0.715016546225	1055
49	3763	0.914566731745	1055
49	8540	2.076232388769	1055
49	9278	2.247330550753	1055
49	10333	2.499004762577	1055
49	12347	2.966715193841	1055
49	13531	3.254838742689	1055
49	13994	3.372512836833	1055
49	14398	3.471492262465	1055
49	16066	3.875901312401	1055
49	18079	4.364286391409	1055
49	18229	4.400424414945	1055
49	18708	4.517838519473	1055
vector 50 WirelessB.hostA.app[0] throughput:vector ETV
attr source throughput(packetReceived)
attr title "throughput, vector"
attr unit bps
46	18887	4.562893806286	254397.06935914
50	18887	0.1	0
50	18887	0.2	0
50	18887	0.3	0
50	18887	0.4	0
50	18887	0.5	0
50	18887	0.6	0
50	18887	0.7	0
50	18887	0.8	0
50	18887	0.9	0
50	18887	1	0
50	18887	1.1	0
50	18887	1.2	0
50	18887	1.3	0
50	18887	1.4	0
50	18887	1.5	0
50	18887	1.6	0
50	18887	1.7	0
50	18887	1.8	0
50	18887	1.9	0
50	18887	2	0
50	18887	2.1	0
50	18887	2.2	0
50	18887	2.3	0
50	18887	2.4	0
50	18887	2.5	0
50	18887	2.6	0
50	18887	2.7	0
50	18887	2.8	0
50	18887	2.9	0
50	18887	3	0
50	18887	3.1	0
50	18887	3.2	0
50	18887	3.3	0
50	18887	3.4	0
50	18887	3.5	0
50	18887	3.6	0
50	18887	3.7	0
50	18887	3.8	0
50	18887	3.9	0
50	18887	4	0
50	18887	4.1	0
50	18887	4.2	0
50	18887	4.3	0
50	18887	4.4	0
50	18887	4.5	0
50	18887	4.562893806286	0

